* NGSPICE file created from bias.ext - technology: sky130A

.subckt bias IREF AVDD AVSS VB3 VB4 VB2 VB1
X0 a_9838_205# VB2.t45 VB4.t10 AVSS.t2 sky130_fd_pr__nfet_01v8 ad=0.145 pd=1.29 as=0.29 ps=2.58 w=1 l=1
X1 AVSS.t179 AVSS.t177 AVSS.t178 AVSS.t18 sky130_fd_pr__nfet_01v8 ad=0.29 pd=2.58 as=0 ps=0 w=1 l=1
X2 a_8132_2488# IREF.t10 VB1.t0 AVSS.t194 sky130_fd_pr__nfet_01v8 ad=0.145 pd=1.29 as=0.29 ps=2.58 w=1 l=1
X3 a_4970_1009# VB1.t65 VB1.t66 AVDD.t27 sky130_fd_pr__pfet_01v8_hvt ad=0.145 pd=1.29 as=0.145 ps=1.29 w=1 l=1
X4 a_9838_2488# IREF.t11 VB1.t4 AVSS.t2 sky130_fd_pr__nfet_01v8 ad=0.145 pd=1.29 as=0.29 ps=2.58 w=1 l=1
X5 a_10519_5228# VB4.t15 AVDD.t7 AVDD.t2 sky130_fd_pr__pfet_01v8_hvt ad=0.145 pd=1.29 as=0.29 ps=2.58 w=1 l=1
X6 AVSS.t176 AVSS.t174 AVSS.t175 AVSS.t33 sky130_fd_pr__nfet_01v8 ad=0.29 pd=2.58 as=0 ps=0 w=1 l=1
X7 AVSS.t173 AVSS.t170 AVSS.t172 AVSS.t171 sky130_fd_pr__nfet_01v8 ad=0.29 pd=2.58 as=0 ps=0 w=1 l=1
X8 AVSS.t169 AVSS.t168 AVSS.t169 AVSS.t59 sky130_fd_pr__nfet_01v8 ad=0.145 pd=1.29 as=0 ps=0 w=1 l=1
X9 a_8132_1583# IREF.t4 IREF.t5 AVSS.t194 sky130_fd_pr__nfet_01v8 ad=0.145 pd=1.29 as=0.29 ps=2.58 w=1 l=1
X10 a_2712_n77# VB1.t75 VB2.t9 AVDD.t19 sky130_fd_pr__pfet_01v8_hvt ad=0.145 pd=1.29 as=0.29 ps=2.58 w=1 l=1
X11 AVDD.t126 VB1.t76 a_3744_4980# AVDD.t11 sky130_fd_pr__pfet_01v8_hvt ad=0.29 pd=2.58 as=0.145 ps=1.29 w=1 l=1
X12 a_9838_1583# IREF.t8 IREF.t9 AVSS.t2 sky130_fd_pr__nfet_01v8 ad=0.145 pd=1.29 as=0.29 ps=2.58 w=1 l=1
X13 VB4.t9 VB4.t8 a_10777_6298# AVDD.t1 sky130_fd_pr__pfet_01v8_hvt ad=0.29 pd=2.58 as=0.145 ps=1.29 w=1 l=1
X14 a_2712_4093# VB1.t77 VB2.t0 AVDD.t19 sky130_fd_pr__pfet_01v8_hvt ad=0.145 pd=1.29 as=0.29 ps=2.58 w=1 l=1
X15 AVDD.t420 AVDD.t419 AVDD.t420 AVDD.t20 sky130_fd_pr__pfet_01v8_hvt ad=0.145 pd=1.29 as=0 ps=0 w=1 l=1
X16 a_2002_6484# VB1.t78 VB2.t31 AVDD.t29 sky130_fd_pr__pfet_01v8_hvt ad=0.145 pd=1.29 as=0.145 ps=1.29 w=1 l=1
X17 AVDD.t125 VB1.t79 a_3744_2103# AVDD.t11 sky130_fd_pr__pfet_01v8_hvt ad=0.29 pd=2.58 as=0.145 ps=1.29 w=1 l=1
X18 AVDD.t124 VB1.t80 a_2002_5597# AVDD.t8 sky130_fd_pr__pfet_01v8_hvt ad=0.29 pd=2.58 as=0.145 ps=1.29 w=1 l=1
X19 AVDD.t123 VB1.t81 a_2712_5597# AVDD.t35 sky130_fd_pr__pfet_01v8_hvt ad=0.145 pd=1.29 as=0.145 ps=1.29 w=1 l=1
X20 a_4970_n77# VB1.t82 VB3.t27 AVDD.t27 sky130_fd_pr__pfet_01v8_hvt ad=0.145 pd=1.29 as=0.145 ps=1.29 w=1 l=1
X21 a_3744_4980# VB1.t83 VB3.t4 AVDD.t22 sky130_fd_pr__pfet_01v8_hvt ad=0.145 pd=1.29 as=0.145 ps=1.29 w=1 l=1
X22 AVDD.t122 VB1.t84 a_4970_1009# AVDD.t20 sky130_fd_pr__pfet_01v8_hvt ad=0.29 pd=2.58 as=0.145 ps=1.29 w=1 l=1
X23 a_10777_6298# VB4.t16 a_10519_6298# AVDD.t0 sky130_fd_pr__pfet_01v8_hvt ad=0.145 pd=1.29 as=0.145 ps=1.29 w=1 l=1
X24 a_4970_n2468# VB1.t85 VB2.t7 AVDD.t27 sky130_fd_pr__pfet_01v8_hvt ad=0.145 pd=1.29 as=0.145 ps=1.29 w=1 l=1
X25 AVDD.t121 VB1.t86 a_4970_n3085# AVDD.t20 sky130_fd_pr__pfet_01v8_hvt ad=0.29 pd=2.58 as=0.145 ps=1.29 w=1 l=1
X26 VB2.t28 VB1.t87 a_1486_6484# AVDD.t18 sky130_fd_pr__pfet_01v8_hvt ad=0.145 pd=1.29 as=0.145 ps=1.29 w=1 l=1
X27 a_3744_2103# VB1.t5 VB1.t6 AVDD.t22 sky130_fd_pr__pfet_01v8_hvt ad=0.145 pd=1.29 as=0.145 ps=1.29 w=1 l=1
X28 VB2.t34 VB1.t88 a_3228_n3085# AVDD.t15 sky130_fd_pr__pfet_01v8_hvt ad=0.145 pd=1.29 as=0.145 ps=1.29 w=1 l=1
X29 AVDD.t120 VB1.t89 a_2712_1638# AVDD.t35 sky130_fd_pr__pfet_01v8_hvt ad=0.145 pd=1.29 as=0.145 ps=1.29 w=1 l=1
X30 AVDD.t119 VB1.t90 a_2002_1638# AVDD.t8 sky130_fd_pr__pfet_01v8_hvt ad=0.29 pd=2.58 as=0.145 ps=1.29 w=1 l=1
X31 AVSS.t202 IREF.t12 a_11544_2488# AVSS.t191 sky130_fd_pr__nfet_01v8 ad=0.29 pd=2.58 as=0.145 ps=1.29 w=1 l=1
X32 VB3.t15 VB1.t91 a_3228_4980# AVDD.t15 sky130_fd_pr__pfet_01v8_hvt ad=0.145 pd=1.29 as=0.145 ps=1.29 w=1 l=1
X33 AVSS.t167 AVSS.t165 AVSS.t167 AVSS.t166 sky130_fd_pr__nfet_01v8 ad=0.145 pd=1.29 as=0 ps=0 w=1 l=1
X34 AVDD.t418 AVDD.t417 AVDD.t418 AVDD.t141 sky130_fd_pr__pfet_01v8_hvt ad=0.145 pd=1.29 as=0 ps=0 w=1 l=1
X35 a_1486_6484# VB1.t92 AVDD.t118 AVDD.t38 sky130_fd_pr__pfet_01v8_hvt ad=0.145 pd=1.29 as=0.29 ps=2.58 w=1 l=1
X36 VB1.t70 VB1.t69 a_3228_2103# AVDD.t15 sky130_fd_pr__pfet_01v8_hvt ad=0.145 pd=1.29 as=0.145 ps=1.29 w=1 l=1
X37 AVSS.t164 AVSS.t163 AVSS.t164 AVSS.t37 sky130_fd_pr__nfet_01v8 ad=0.145 pd=1.29 as=0 ps=0 w=1 l=1
X38 a_11544_2488# IREF.t13 VB1.t1 AVSS.t4 sky130_fd_pr__nfet_01v8 ad=0.145 pd=1.29 as=0.29 ps=2.58 w=1 l=1
X39 a_1486_n77# VB1.t93 AVDD.t117 AVDD.t38 sky130_fd_pr__pfet_01v8_hvt ad=0.145 pd=1.29 as=0.29 ps=2.58 w=1 l=1
X40 a_4970_4093# VB1.t94 VB3.t31 AVDD.t27 sky130_fd_pr__pfet_01v8_hvt ad=0.145 pd=1.29 as=0.145 ps=1.29 w=1 l=1
X41 AVDD.t416 AVDD.t415 AVDD.t416 AVDD.t144 sky130_fd_pr__pfet_01v8_hvt ad=0.145 pd=1.29 as=0 ps=0 w=1 l=1
X42 AVSS.t162 AVSS.t160 AVSS.t162 AVSS.t161 sky130_fd_pr__nfet_01v8 ad=0.145 pd=1.29 as=0 ps=0 w=1 l=1
X43 AVDD.t116 VB1.t95 a_3744_n2468# AVDD.t11 sky130_fd_pr__pfet_01v8_hvt ad=0.29 pd=2.58 as=0.145 ps=1.29 w=1 l=1
X44 AVDD.t414 AVDD.t412 AVDD.t413 AVDD.t149 sky130_fd_pr__pfet_01v8_hvt ad=0.29 pd=2.58 as=0 ps=0 w=1 l=1
X45 a_2002_n964# VB1.t96 VB2.t38 AVDD.t29 sky130_fd_pr__pfet_01v8_hvt ad=0.145 pd=1.29 as=0.145 ps=1.29 w=1 l=1
X46 a_3228_n77# VB1.t97 AVDD.t115 AVDD.t32 sky130_fd_pr__pfet_01v8_hvt ad=0.145 pd=1.29 as=0.145 ps=1.29 w=1 l=1
X47 AVSS.t159 AVSS.t156 AVSS.t158 AVSS.t157 sky130_fd_pr__nfet_01v8 ad=0.29 pd=2.58 as=0 ps=0 w=1 l=1
X48 AVSS.t204 IREF.t14 a_11544_1583# AVSS.t191 sky130_fd_pr__nfet_01v8 ad=0.29 pd=2.58 as=0.145 ps=1.29 w=1 l=1
X49 VB2.t44 VB1.t98 a_4454_n2468# AVDD.t23 sky130_fd_pr__pfet_01v8_hvt ad=0.145 pd=1.29 as=0.145 ps=1.29 w=1 l=1
X50 a_2002_2724# VB1.t17 VB1.t18 AVDD.t29 sky130_fd_pr__pfet_01v8_hvt ad=0.145 pd=1.29 as=0.145 ps=1.29 w=1 l=1
X51 AVDD.t114 VB1.t99 a_2712_n2468# AVDD.t35 sky130_fd_pr__pfet_01v8_hvt ad=0.145 pd=1.29 as=0.145 ps=1.29 w=1 l=1
X52 a_3228_n3085# VB1.t100 AVDD.t110 AVDD.t32 sky130_fd_pr__pfet_01v8_hvt ad=0.145 pd=1.29 as=0.145 ps=1.29 w=1 l=1
X53 AVDD.t411 AVDD.t410 AVDD.t411 AVDD.t20 sky130_fd_pr__pfet_01v8_hvt ad=0.145 pd=1.29 as=0 ps=0 w=1 l=1
X54 AVDD.t409 AVDD.t407 AVDD.t408 AVDD.t192 sky130_fd_pr__pfet_01v8_hvt ad=0.29 pd=2.58 as=0 ps=0 w=1 l=1
X55 a_3228_5597# VB1.t101 AVDD.t113 AVDD.t32 sky130_fd_pr__pfet_01v8_hvt ad=0.145 pd=1.29 as=0.145 ps=1.29 w=1 l=1
X56 a_1486_n3085# VB1.t102 AVDD.t112 AVDD.t38 sky130_fd_pr__pfet_01v8_hvt ad=0.145 pd=1.29 as=0.29 ps=2.58 w=1 l=1
X57 AVDD.t406 AVDD.t405 AVDD.t406 AVDD.t15 sky130_fd_pr__pfet_01v8_hvt ad=0.145 pd=1.29 as=0 ps=0 w=1 l=1
X58 VB2.t36 VB1.t103 a_1486_n964# AVDD.t18 sky130_fd_pr__pfet_01v8_hvt ad=0.145 pd=1.29 as=0.145 ps=1.29 w=1 l=1
X59 AVDD.t404 AVDD.t403 AVDD.t404 AVDD.t144 sky130_fd_pr__pfet_01v8_hvt ad=0.145 pd=1.29 as=0 ps=0 w=1 l=1
X60 a_2712_3472# VB1.t104 VB3.t29 AVDD.t19 sky130_fd_pr__pfet_01v8_hvt ad=0.145 pd=1.29 as=0.29 ps=2.58 w=1 l=1
X61 a_8985_205# IREF.t15 AVSS.t206 AVSS.t185 sky130_fd_pr__nfet_01v8 ad=0.145 pd=1.29 as=0.29 ps=2.58 w=1 l=1
X62 a_11544_1583# IREF.t0 IREF.t1 AVSS.t4 sky130_fd_pr__nfet_01v8 ad=0.145 pd=1.29 as=0.29 ps=2.58 w=1 l=1
X63 a_2712_542# VB1.t67 VB1.t68 AVDD.t19 sky130_fd_pr__pfet_01v8_hvt ad=0.145 pd=1.29 as=0.29 ps=2.58 w=1 l=1
X64 VB1.t60 VB1.t59 a_1486_2724# AVDD.t18 sky130_fd_pr__pfet_01v8_hvt ad=0.145 pd=1.29 as=0.145 ps=1.29 w=1 l=1
X65 AVDD.t402 AVDD.t401 AVDD.t402 AVDD.t144 sky130_fd_pr__pfet_01v8_hvt ad=0.145 pd=1.29 as=0 ps=0 w=1 l=1
X66 a_3228_1638# VB1.t105 AVDD.t111 AVDD.t32 sky130_fd_pr__pfet_01v8_hvt ad=0.145 pd=1.29 as=0.145 ps=1.29 w=1 l=1
X67 a_8985_2488# VB2.t46 AVSS.t201 AVSS.t185 sky130_fd_pr__nfet_01v8 ad=0.145 pd=1.29 as=0.29 ps=2.58 w=1 l=1
X68 AVSS.t155 AVSS.t153 AVSS.t155 AVSS.t154 sky130_fd_pr__nfet_01v8 ad=0.145 pd=1.29 as=0 ps=0 w=1 l=1
X69 a_1486_n964# VB1.t106 AVDD.t109 AVDD.t38 sky130_fd_pr__pfet_01v8_hvt ad=0.145 pd=1.29 as=0.29 ps=2.58 w=1 l=1
X70 AVDD.t400 AVDD.t398 AVDD.t399 AVDD.t192 sky130_fd_pr__pfet_01v8_hvt ad=0.29 pd=2.58 as=0 ps=0 w=1 l=1
X71 a_2002_n2468# VB1.t107 VB2.t37 AVDD.t29 sky130_fd_pr__pfet_01v8_hvt ad=0.145 pd=1.29 as=0.145 ps=1.29 w=1 l=1
X72 AVSS.t152 AVSS.t149 AVSS.t151 AVSS.t150 sky130_fd_pr__nfet_01v8 ad=0.29 pd=2.58 as=0 ps=0 w=1 l=1
X73 AVDD.t108 VB1.t108 a_3744_n77# AVDD.t11 sky130_fd_pr__pfet_01v8_hvt ad=0.29 pd=2.58 as=0.145 ps=1.29 w=1 l=1
X74 a_1486_2724# VB1.t109 AVDD.t107 AVDD.t38 sky130_fd_pr__pfet_01v8_hvt ad=0.145 pd=1.29 as=0.29 ps=2.58 w=1 l=1
X75 a_4970_542# VB1.t55 VB1.t56 AVDD.t27 sky130_fd_pr__pfet_01v8_hvt ad=0.145 pd=1.29 as=0.145 ps=1.29 w=1 l=1
X76 a_2712_n2468# VB1.t110 VB3.t13 AVDD.t19 sky130_fd_pr__pfet_01v8_hvt ad=0.145 pd=1.29 as=0.29 ps=2.58 w=1 l=1
X77 AVDD.t106 VB1.t111 a_4970_4093# AVDD.t20 sky130_fd_pr__pfet_01v8_hvt ad=0.29 pd=2.58 as=0.145 ps=1.29 w=1 l=1
X78 AVDD.t397 AVDD.t396 AVDD.t397 AVDD.t32 sky130_fd_pr__pfet_01v8_hvt ad=0.145 pd=1.29 as=0 ps=0 w=1 l=1
X79 AVSS.t148 AVSS.t145 AVSS.t147 AVSS.t146 sky130_fd_pr__nfet_01v8 ad=0.29 pd=2.58 as=0 ps=0 w=1 l=1
X80 AVDD.t395 AVDD.t393 AVDD.t394 AVDD.t130 sky130_fd_pr__pfet_01v8_hvt ad=0.29 pd=2.58 as=0 ps=0 w=1 l=1
X81 AVDD.t392 AVDD.t391 AVDD.t392 AVDD.t144 sky130_fd_pr__pfet_01v8_hvt ad=0.145 pd=1.29 as=0 ps=0 w=1 l=1
X82 a_8985_1583# VB2.t47 AVSS.t200 AVSS.t185 sky130_fd_pr__nfet_01v8 ad=0.145 pd=1.29 as=0.29 ps=2.58 w=1 l=1
X83 AVDD.t390 AVDD.t388 AVDD.t389 AVDD.t38 sky130_fd_pr__pfet_01v8_hvt ad=0.29 pd=2.58 as=0 ps=0 w=1 l=1
X84 AVDD.t387 AVDD.t386 AVDD.t387 AVDD.t144 sky130_fd_pr__pfet_01v8_hvt ad=0.145 pd=1.29 as=0 ps=0 w=1 l=1
X85 AVDD.t385 AVDD.t384 AVDD.t385 AVDD.t35 sky130_fd_pr__pfet_01v8_hvt ad=0.145 pd=1.29 as=0 ps=0 w=1 l=1
X86 AVSS.t144 AVSS.t143 AVSS.t144 AVSS.t59 sky130_fd_pr__nfet_01v8 ad=0.145 pd=1.29 as=0 ps=0 w=1 l=1
X87 AVDD.t383 AVDD.t382 AVDD.t383 AVDD.t8 sky130_fd_pr__pfet_01v8_hvt ad=0.145 pd=1.29 as=0 ps=0 w=1 l=1
X88 a_4970_3472# VB1.t112 VB2.t6 AVDD.t27 sky130_fd_pr__pfet_01v8_hvt ad=0.145 pd=1.29 as=0.145 ps=1.29 w=1 l=1
X89 AVDD.t381 AVDD.t380 AVDD.t381 AVDD.t144 sky130_fd_pr__pfet_01v8_hvt ad=0.145 pd=1.29 as=0 ps=0 w=1 l=1
X90 AVDD.t379 AVDD.t378 AVDD.t379 AVDD.t141 sky130_fd_pr__pfet_01v8_hvt ad=0.145 pd=1.29 as=0 ps=0 w=1 l=1
X91 a_10519_6762# VB4.t17 AVDD.t6 AVDD.t2 sky130_fd_pr__pfet_01v8_hvt ad=0.145 pd=1.29 as=0.29 ps=2.58 w=1 l=1
X92 AVSS.t199 VB2.t48 a_11544_205# AVSS.t191 sky130_fd_pr__nfet_01v8 ad=0.29 pd=2.58 as=0.145 ps=1.29 w=1 l=1
X93 AVDD.t377 AVDD.t375 AVDD.t376 AVDD.t192 sky130_fd_pr__pfet_01v8_hvt ad=0.29 pd=2.58 as=0 ps=0 w=1 l=1
X94 IREF.t7 IREF.t6 a_8985_1111# AVSS.t184 sky130_fd_pr__nfet_01v8 ad=0.29 pd=2.58 as=0.145 ps=1.29 w=1 l=1
X95 AVDD.t105 VB1.t113 a_2712_1009# AVDD.t35 sky130_fd_pr__pfet_01v8_hvt ad=0.145 pd=1.29 as=0.145 ps=1.29 w=1 l=1
X96 AVDD.t104 VB1.t114 a_2002_1009# AVDD.t8 sky130_fd_pr__pfet_01v8_hvt ad=0.29 pd=2.58 as=0.145 ps=1.29 w=1 l=1
X97 AVDD.t374 AVDD.t372 AVDD.t373 AVDD.t192 sky130_fd_pr__pfet_01v8_hvt ad=0.29 pd=2.58 as=0 ps=0 w=1 l=1
X98 AVDD.t371 AVDD.t369 AVDD.t370 AVDD.t192 sky130_fd_pr__pfet_01v8_hvt ad=0.29 pd=2.58 as=0 ps=0 w=1 l=1
X99 AVDD.t368 AVDD.t366 AVDD.t367 AVDD.t134 sky130_fd_pr__pfet_01v8_hvt ad=0.29 pd=2.58 as=0 ps=0 w=1 l=1
X100 AVSS.t142 AVSS.t140 AVSS.t141 AVSS.t48 sky130_fd_pr__nfet_01v8 ad=0.29 pd=2.58 as=0 ps=0 w=1 l=1
X101 a_1486_542# VB1.t115 AVDD.t103 AVDD.t38 sky130_fd_pr__pfet_01v8_hvt ad=0.145 pd=1.29 as=0.29 ps=2.58 w=1 l=1
X102 AVDD.t365 AVDD.t363 AVDD.t364 AVDD.t192 sky130_fd_pr__pfet_01v8_hvt ad=0.29 pd=2.58 as=0 ps=0 w=1 l=1
X103 a_3228_542# VB1.t116 AVDD.t101 AVDD.t32 sky130_fd_pr__pfet_01v8_hvt ad=0.145 pd=1.29 as=0.145 ps=1.29 w=1 l=1
X104 AVDD.t362 AVDD.t360 AVDD.t361 AVDD.t134 sky130_fd_pr__pfet_01v8_hvt ad=0.29 pd=2.58 as=0 ps=0 w=1 l=1
X105 VB3.t36 VB3.t35 a_10086_n3072# AVSS.t37 sky130_fd_pr__nfet_01v8 ad=0.29 pd=2.58 as=0.145 ps=1.29 w=1 l=1
X106 AVSS.t139 AVSS.t137 AVSS.t138 AVSS.t18 sky130_fd_pr__nfet_01v8 ad=0.29 pd=2.58 as=0 ps=0 w=1 l=1
X107 AVSS.t136 AVSS.t134 AVSS.t135 AVSS.t5 sky130_fd_pr__nfet_01v8 ad=0.29 pd=2.58 as=0 ps=0 w=1 l=1
X108 VB2.t33 VB1.t117 a_4454_6484# AVDD.t23 sky130_fd_pr__pfet_01v8_hvt ad=0.145 pd=1.29 as=0.145 ps=1.29 w=1 l=1
X109 a_10691_2488# VB2.t49 AVSS.t198 AVSS.t188 sky130_fd_pr__nfet_01v8 ad=0.145 pd=1.29 as=0.29 ps=2.58 w=1 l=1
X110 AVSS.t133 AVSS.t131 AVSS.t133 AVSS.t132 sky130_fd_pr__nfet_01v8 ad=0.145 pd=1.29 as=0 ps=0 w=1 l=1
X111 a_2002_4980# VB1.t118 VB2.t35 AVDD.t29 sky130_fd_pr__pfet_01v8_hvt ad=0.145 pd=1.29 as=0.145 ps=1.29 w=1 l=1
X112 AVSS.t130 AVSS.t128 AVSS.t129 AVSS.t85 sky130_fd_pr__nfet_01v8 ad=0.29 pd=2.58 as=0 ps=0 w=1 l=1
X113 a_4454_6484# VB1.t119 AVDD.t102 AVDD.t16 sky130_fd_pr__pfet_01v8_hvt ad=0.145 pd=1.29 as=0.29 ps=2.58 w=1 l=1
X114 VB4.t7 VB4.t6 a_10777_5228# AVDD.t1 sky130_fd_pr__pfet_01v8_hvt ad=0.29 pd=2.58 as=0.145 ps=1.29 w=1 l=1
X115 AVDD.t359 AVDD.t358 AVDD.t359 AVDD.t32 sky130_fd_pr__pfet_01v8_hvt ad=0.145 pd=1.29 as=0 ps=0 w=1 l=1
X116 AVDD.t100 VB1.t120 a_4970_3472# AVDD.t20 sky130_fd_pr__pfet_01v8_hvt ad=0.29 pd=2.58 as=0.145 ps=1.29 w=1 l=1
X117 AVDD.t357 AVDD.t355 AVDD.t356 AVDD.t192 sky130_fd_pr__pfet_01v8_hvt ad=0.29 pd=2.58 as=0 ps=0 w=1 l=1
X118 a_2002_2103# VB1.t63 VB1.t64 AVDD.t29 sky130_fd_pr__pfet_01v8_hvt ad=0.145 pd=1.29 as=0.145 ps=1.29 w=1 l=1
X119 AVDD.t354 AVDD.t352 AVDD.t353 AVDD.t134 sky130_fd_pr__pfet_01v8_hvt ad=0.29 pd=2.58 as=0 ps=0 w=1 l=1
X120 AVDD.t99 VB1.t121 a_4970_n1581# AVDD.t20 sky130_fd_pr__pfet_01v8_hvt ad=0.29 pd=2.58 as=0.145 ps=1.29 w=1 l=1
X121 VB2.t39 VB1.t122 a_1486_4980# AVDD.t18 sky130_fd_pr__pfet_01v8_hvt ad=0.145 pd=1.29 as=0.145 ps=1.29 w=1 l=1
X122 VB2.t41 VB1.t123 a_3228_n1581# AVDD.t15 sky130_fd_pr__pfet_01v8_hvt ad=0.145 pd=1.29 as=0.145 ps=1.29 w=1 l=1
X123 AVSS.t127 AVSS.t124 AVSS.t126 AVSS.t125 sky130_fd_pr__nfet_01v8 ad=0.29 pd=2.58 as=0 ps=0 w=1 l=1
X124 AVDD.t98 VB1.t124 a_3744_542# AVDD.t11 sky130_fd_pr__pfet_01v8_hvt ad=0.29 pd=2.58 as=0.145 ps=1.29 w=1 l=1
X125 a_3228_1009# VB1.t125 AVDD.t97 AVDD.t32 sky130_fd_pr__pfet_01v8_hvt ad=0.145 pd=1.29 as=0.145 ps=1.29 w=1 l=1
X126 a_10691_1583# VB2.t50 AVSS.t197 AVSS.t188 sky130_fd_pr__nfet_01v8 ad=0.145 pd=1.29 as=0.29 ps=2.58 w=1 l=1
X127 AVSS.t187 IREF.t16 a_9838_2488# AVSS.t182 sky130_fd_pr__nfet_01v8 ad=0.29 pd=2.58 as=0.145 ps=1.29 w=1 l=1
X128 a_10777_5228# VB4.t18 a_10519_5228# AVDD.t0 sky130_fd_pr__pfet_01v8_hvt ad=0.145 pd=1.29 as=0.145 ps=1.29 w=1 l=1
X129 AVSS.t123 AVSS.t121 AVSS.t122 AVSS.t48 sky130_fd_pr__nfet_01v8 ad=0.29 pd=2.58 as=0 ps=0 w=1 l=1
X130 VB1.t32 VB1.t31 a_1486_2103# AVDD.t18 sky130_fd_pr__pfet_01v8_hvt ad=0.145 pd=1.29 as=0.145 ps=1.29 w=1 l=1
X131 AVDD.t351 AVDD.t349 AVDD.t350 AVDD.t149 sky130_fd_pr__pfet_01v8_hvt ad=0.29 pd=2.58 as=0 ps=0 w=1 l=1
X132 VB2.t40 VB1.t126 a_4454_n964# AVDD.t23 sky130_fd_pr__pfet_01v8_hvt ad=0.145 pd=1.29 as=0.145 ps=1.29 w=1 l=1
X133 a_1486_4980# VB1.t127 AVDD.t96 AVDD.t38 sky130_fd_pr__pfet_01v8_hvt ad=0.145 pd=1.29 as=0.29 ps=2.58 w=1 l=1
X134 AVDD.t348 AVDD.t346 AVDD.t347 AVDD.t130 sky130_fd_pr__pfet_01v8_hvt ad=0.29 pd=2.58 as=0 ps=0 w=1 l=1
X135 VB1.t62 VB1.t61 a_4454_2724# AVDD.t23 sky130_fd_pr__pfet_01v8_hvt ad=0.145 pd=1.29 as=0.145 ps=1.29 w=1 l=1
X136 AVDD.t345 AVDD.t344 AVDD.t345 AVDD.t144 sky130_fd_pr__pfet_01v8_hvt ad=0.145 pd=1.29 as=0 ps=0 w=1 l=1
X137 AVSS.t183 IREF.t17 a_9838_1583# AVSS.t182 sky130_fd_pr__nfet_01v8 ad=0.29 pd=2.58 as=0.145 ps=1.29 w=1 l=1
X138 AVDD.t343 AVDD.t342 AVDD.t343 AVDD.t141 sky130_fd_pr__pfet_01v8_hvt ad=0.145 pd=1.29 as=0 ps=0 w=1 l=1
X139 a_1486_2103# VB1.t128 AVDD.t95 AVDD.t38 sky130_fd_pr__pfet_01v8_hvt ad=0.145 pd=1.29 as=0.29 ps=2.58 w=1 l=1
X140 AVDD.t94 VB1.t129 a_2712_4093# AVDD.t35 sky130_fd_pr__pfet_01v8_hvt ad=0.145 pd=1.29 as=0.145 ps=1.29 w=1 l=1
X141 AVDD.t93 VB1.t130 a_2002_4093# AVDD.t8 sky130_fd_pr__pfet_01v8_hvt ad=0.29 pd=2.58 as=0.145 ps=1.29 w=1 l=1
X142 a_4454_n964# VB1.t131 AVDD.t92 AVDD.t16 sky130_fd_pr__pfet_01v8_hvt ad=0.145 pd=1.29 as=0.29 ps=2.58 w=1 l=1
X143 a_3228_n1581# VB1.t132 AVDD.t91 AVDD.t32 sky130_fd_pr__pfet_01v8_hvt ad=0.145 pd=1.29 as=0.145 ps=1.29 w=1 l=1
X144 a_4454_2724# VB1.t133 AVDD.t90 AVDD.t16 sky130_fd_pr__pfet_01v8_hvt ad=0.145 pd=1.29 as=0.29 ps=2.58 w=1 l=1
X145 AVDD.t341 AVDD.t339 AVDD.t340 AVDD.t192 sky130_fd_pr__pfet_01v8_hvt ad=0.29 pd=2.58 as=0 ps=0 w=1 l=1
X146 a_1486_n1581# VB1.t134 AVDD.t89 AVDD.t38 sky130_fd_pr__pfet_01v8_hvt ad=0.145 pd=1.29 as=0.29 ps=2.58 w=1 l=1
X147 AVSS.t120 AVSS.t119 AVSS.t120 AVSS.t15 sky130_fd_pr__nfet_01v8 ad=0.145 pd=1.29 as=0 ps=0 w=1 l=1
X148 AVDD.t338 AVDD.t336 AVDD.t337 AVDD.t134 sky130_fd_pr__pfet_01v8_hvt ad=0.29 pd=2.58 as=0 ps=0 w=1 l=1
X149 AVDD.t335 AVDD.t334 AVDD.t335 AVDD.t141 sky130_fd_pr__pfet_01v8_hvt ad=0.145 pd=1.29 as=0 ps=0 w=1 l=1
X150 AVSS.t196 VB2.t51 a_8132_1111# AVSS.t180 sky130_fd_pr__nfet_01v8 ad=0.29 pd=2.58 as=0.145 ps=1.29 w=1 l=1
X151 AVDD.t88 VB1.t135 a_3744_5597# AVDD.t11 sky130_fd_pr__pfet_01v8_hvt ad=0.29 pd=2.58 as=0.145 ps=1.29 w=1 l=1
X152 AVSS.t118 AVSS.t117 AVSS.t118 AVSS.t15 sky130_fd_pr__nfet_01v8 ad=0.145 pd=1.29 as=0 ps=0 w=1 l=1
X153 a_9570_n3072# VB3.t37 AVSS.t6 AVSS.t5 sky130_fd_pr__nfet_01v8 ad=0.145 pd=1.29 as=0.29 ps=2.58 w=1 l=1
X154 AVSS.t116 AVSS.t114 AVSS.t115 AVSS.t18 sky130_fd_pr__nfet_01v8 ad=0.29 pd=2.58 as=0 ps=0 w=1 l=1
X155 AVDD.t333 AVDD.t331 AVDD.t332 AVDD.t134 sky130_fd_pr__pfet_01v8_hvt ad=0.29 pd=2.58 as=0 ps=0 w=1 l=1
X156 AVDD.t330 AVDD.t329 AVDD.t330 AVDD.t141 sky130_fd_pr__pfet_01v8_hvt ad=0.145 pd=1.29 as=0 ps=0 w=1 l=1
X157 AVDD.t328 AVDD.t326 AVDD.t327 AVDD.t2 sky130_fd_pr__pfet_01v8_hvt ad=0.29 pd=2.58 as=0 ps=0 w=1 l=1
X158 AVDD.t87 VB1.t136 a_3744_1638# AVDD.t11 sky130_fd_pr__pfet_01v8_hvt ad=0.29 pd=2.58 as=0.145 ps=1.29 w=1 l=1
X159 AVDD.t325 AVDD.t323 AVDD.t324 AVDD.t134 sky130_fd_pr__pfet_01v8_hvt ad=0.29 pd=2.58 as=0 ps=0 w=1 l=1
X160 a_3744_5597# VB1.t137 VB2.t11 AVDD.t22 sky130_fd_pr__pfet_01v8_hvt ad=0.145 pd=1.29 as=0.145 ps=1.29 w=1 l=1
X161 AVSS.t113 AVSS.t111 AVSS.t112 AVSS.t18 sky130_fd_pr__nfet_01v8 ad=0.29 pd=2.58 as=0 ps=0 w=1 l=1
X162 AVDD.t322 AVDD.t320 AVDD.t321 AVDD.t134 sky130_fd_pr__pfet_01v8_hvt ad=0.29 pd=2.58 as=0 ps=0 w=1 l=1
X163 a_3228_4093# VB1.t138 AVDD.t86 AVDD.t32 sky130_fd_pr__pfet_01v8_hvt ad=0.145 pd=1.29 as=0.145 ps=1.29 w=1 l=1
X164 AVSS.t110 AVSS.t108 AVSS.t110 AVSS.t109 sky130_fd_pr__nfet_01v8 ad=0.145 pd=1.29 as=0 ps=0 w=1 l=1
X165 a_3744_1638# VB1.t71 VB1.t72 AVDD.t22 sky130_fd_pr__pfet_01v8_hvt ad=0.145 pd=1.29 as=0.145 ps=1.29 w=1 l=1
X166 VB2.t1 VB1.t139 a_3228_5597# AVDD.t15 sky130_fd_pr__pfet_01v8_hvt ad=0.145 pd=1.29 as=0.145 ps=1.29 w=1 l=1
X167 VB1.t3 IREF.t18 a_10691_205# AVSS.t1 sky130_fd_pr__nfet_01v8 ad=0.29 pd=2.58 as=0.145 ps=1.29 w=1 l=1
X168 AVDD.t85 VB1.t140 a_2712_3472# AVDD.t35 sky130_fd_pr__pfet_01v8_hvt ad=0.145 pd=1.29 as=0.145 ps=1.29 w=1 l=1
X169 AVDD.t84 VB1.t141 a_2002_3472# AVDD.t8 sky130_fd_pr__pfet_01v8_hvt ad=0.29 pd=2.58 as=0.145 ps=1.29 w=1 l=1
X170 AVDD.t319 AVDD.t317 AVDD.t318 AVDD.t192 sky130_fd_pr__pfet_01v8_hvt ad=0.29 pd=2.58 as=0 ps=0 w=1 l=1
X171 AVDD.t316 AVDD.t314 AVDD.t315 AVDD.t134 sky130_fd_pr__pfet_01v8_hvt ad=0.29 pd=2.58 as=0 ps=0 w=1 l=1
X172 AVDD.t313 AVDD.t311 AVDD.t312 AVDD.t192 sky130_fd_pr__pfet_01v8_hvt ad=0.29 pd=2.58 as=0 ps=0 w=1 l=1
X173 VB1.t58 VB1.t57 a_3228_1638# AVDD.t15 sky130_fd_pr__pfet_01v8_hvt ad=0.145 pd=1.29 as=0.145 ps=1.29 w=1 l=1
X174 a_3744_n3085# VB1.t142 VB2.t8 AVDD.t22 sky130_fd_pr__pfet_01v8_hvt ad=0.145 pd=1.29 as=0.145 ps=1.29 w=1 l=1
X175 a_4454_n3085# VB1.t143 AVDD.t83 AVDD.t16 sky130_fd_pr__pfet_01v8_hvt ad=0.145 pd=1.29 as=0.29 ps=2.58 w=1 l=1
X176 VB2.t43 VB1.t144 a_4454_4980# AVDD.t23 sky130_fd_pr__pfet_01v8_hvt ad=0.145 pd=1.29 as=0.145 ps=1.29 w=1 l=1
X177 a_3744_n77# VB1.t145 VB2.t4 AVDD.t22 sky130_fd_pr__pfet_01v8_hvt ad=0.145 pd=1.29 as=0.145 ps=1.29 w=1 l=1
X178 AVDD.t310 AVDD.t309 AVDD.t310 AVDD.t141 sky130_fd_pr__pfet_01v8_hvt ad=0.145 pd=1.29 as=0 ps=0 w=1 l=1
X179 VB4.t1 VB4.t0 a_10777_6762# AVDD.t1 sky130_fd_pr__pfet_01v8_hvt ad=0.29 pd=2.58 as=0.145 ps=1.29 w=1 l=1
X180 a_2712_6484# VB1.t146 VB3.t17 AVDD.t19 sky130_fd_pr__pfet_01v8_hvt ad=0.145 pd=1.29 as=0.29 ps=2.58 w=1 l=1
X181 VB1.t12 VB1.t11 a_4454_2103# AVDD.t23 sky130_fd_pr__pfet_01v8_hvt ad=0.145 pd=1.29 as=0.145 ps=1.29 w=1 l=1
X182 a_4454_4980# VB1.t147 AVDD.t82 AVDD.t16 sky130_fd_pr__pfet_01v8_hvt ad=0.145 pd=1.29 as=0.29 ps=2.58 w=1 l=1
X183 AVDD.t308 AVDD.t306 AVDD.t307 AVDD.t134 sky130_fd_pr__pfet_01v8_hvt ad=0.29 pd=2.58 as=0 ps=0 w=1 l=1
X184 AVDD.t305 AVDD.t303 AVDD.t304 AVDD.t149 sky130_fd_pr__pfet_01v8_hvt ad=0.29 pd=2.58 as=0 ps=0 w=1 l=1
X185 AVDD.t302 AVDD.t300 AVDD.t301 AVDD.t130 sky130_fd_pr__pfet_01v8_hvt ad=0.29 pd=2.58 as=0 ps=0 w=1 l=1
X186 a_10777_6762# VB4.t19 a_10519_6762# AVDD.t0 sky130_fd_pr__pfet_01v8_hvt ad=0.145 pd=1.29 as=0.145 ps=1.29 w=1 l=1
X187 a_10519_5531# VB4.t20 AVDD.t5 AVDD.t2 sky130_fd_pr__pfet_01v8_hvt ad=0.145 pd=1.29 as=0.29 ps=2.58 w=1 l=1
X188 a_11544_205# VB2.t52 VB4.t13 AVSS.t4 sky130_fd_pr__nfet_01v8 ad=0.145 pd=1.29 as=0.29 ps=2.58 w=1 l=1
X189 a_4454_2103# VB1.t148 AVDD.t81 AVDD.t16 sky130_fd_pr__pfet_01v8_hvt ad=0.145 pd=1.29 as=0.29 ps=2.58 w=1 l=1
X190 a_3228_3472# VB1.t149 AVDD.t80 AVDD.t32 sky130_fd_pr__pfet_01v8_hvt ad=0.145 pd=1.29 as=0.145 ps=1.29 w=1 l=1
X191 VB3.t25 VB1.t150 a_1486_n3085# AVDD.t18 sky130_fd_pr__pfet_01v8_hvt ad=0.145 pd=1.29 as=0.145 ps=1.29 w=1 l=1
X192 AVDD.t299 AVDD.t298 AVDD.t299 AVDD.t22 sky130_fd_pr__pfet_01v8_hvt ad=0.145 pd=1.29 as=0 ps=0 w=1 l=1
X193 AVDD.t297 AVDD.t296 AVDD.t297 AVDD.t11 sky130_fd_pr__pfet_01v8_hvt ad=0.145 pd=1.29 as=0 ps=0 w=1 l=1
X194 AVSS.t107 AVSS.t105 AVSS.t107 AVSS.t106 sky130_fd_pr__nfet_01v8 ad=0.145 pd=1.29 as=0 ps=0 w=1 l=1
X195 AVDD.t295 AVDD.t293 AVDD.t294 AVDD.t16 sky130_fd_pr__pfet_01v8_hvt ad=0.29 pd=2.58 as=0 ps=0 w=1 l=1
X196 AVDD.t79 VB1.t151 a_3744_1009# AVDD.t11 sky130_fd_pr__pfet_01v8_hvt ad=0.29 pd=2.58 as=0.145 ps=1.29 w=1 l=1
X197 a_4970_6484# VB1.t152 VB2.t16 AVDD.t27 sky130_fd_pr__pfet_01v8_hvt ad=0.145 pd=1.29 as=0.145 ps=1.29 w=1 l=1
X198 AVSS.t104 AVSS.t103 AVSS.t104 AVSS.t59 sky130_fd_pr__nfet_01v8 ad=0.145 pd=1.29 as=0 ps=0 w=1 l=1
X199 AVDD.t292 AVDD.t291 AVDD.t292 AVDD.t22 sky130_fd_pr__pfet_01v8_hvt ad=0.145 pd=1.29 as=0 ps=0 w=1 l=1
X200 a_2712_n964# VB1.t153 VB3.t1 AVDD.t19 sky130_fd_pr__pfet_01v8_hvt ad=0.145 pd=1.29 as=0.29 ps=2.58 w=1 l=1
X201 a_2712_2724# VB1.t43 VB1.t44 AVDD.t19 sky130_fd_pr__pfet_01v8_hvt ad=0.145 pd=1.29 as=0.29 ps=2.58 w=1 l=1
X202 AVSS.t102 AVSS.t100 AVSS.t101 AVSS.t85 sky130_fd_pr__nfet_01v8 ad=0.29 pd=2.58 as=0 ps=0 w=1 l=1
X203 VB4.t14 VB2.t53 a_8985_2488# AVSS.t184 sky130_fd_pr__nfet_01v8 ad=0.29 pd=2.58 as=0.145 ps=1.29 w=1 l=1
X204 a_3744_1009# VB1.t53 VB1.t54 AVDD.t22 sky130_fd_pr__pfet_01v8_hvt ad=0.145 pd=1.29 as=0.145 ps=1.29 w=1 l=1
X205 AVSS.t99 AVSS.t97 AVSS.t98 AVSS.t48 sky130_fd_pr__nfet_01v8 ad=0.29 pd=2.58 as=0 ps=0 w=1 l=1
X206 AVDD.t290 AVDD.t289 AVDD.t290 AVDD.t15 sky130_fd_pr__pfet_01v8_hvt ad=0.145 pd=1.29 as=0 ps=0 w=1 l=1
X207 AVDD.t288 AVDD.t287 AVDD.t288 AVDD.t18 sky130_fd_pr__pfet_01v8_hvt ad=0.145 pd=1.29 as=0 ps=0 w=1 l=1
X208 AVSS.t96 AVSS.t95 AVSS.t96 AVSS.t59 sky130_fd_pr__nfet_01v8 ad=0.145 pd=1.29 as=0 ps=0 w=1 l=1
X209 a_3744_542# VB1.t73 VB1.t74 AVDD.t22 sky130_fd_pr__pfet_01v8_hvt ad=0.145 pd=1.29 as=0.145 ps=1.29 w=1 l=1
X210 VB1.t16 VB1.t15 a_3228_1009# AVDD.t15 sky130_fd_pr__pfet_01v8_hvt ad=0.145 pd=1.29 as=0.145 ps=1.29 w=1 l=1
X211 VB2.t25 VB2.t24 a_8985_1583# AVSS.t184 sky130_fd_pr__nfet_01v8 ad=0.29 pd=2.58 as=0.145 ps=1.29 w=1 l=1
X212 AVDD.t286 AVDD.t285 AVDD.t286 AVDD.t144 sky130_fd_pr__pfet_01v8_hvt ad=0.145 pd=1.29 as=0 ps=0 w=1 l=1
X213 AVSS.t94 AVSS.t92 AVSS.t93 AVSS.t48 sky130_fd_pr__nfet_01v8 ad=0.29 pd=2.58 as=0 ps=0 w=1 l=1
X214 AVDD.t284 AVDD.t283 AVDD.t284 AVDD.t141 sky130_fd_pr__pfet_01v8_hvt ad=0.145 pd=1.29 as=0 ps=0 w=1 l=1
X215 a_2002_5597# VB1.t154 VB3.t2 AVDD.t29 sky130_fd_pr__pfet_01v8_hvt ad=0.145 pd=1.29 as=0.145 ps=1.29 w=1 l=1
X216 a_4970_n964# VB1.t155 VB2.t30 AVDD.t27 sky130_fd_pr__pfet_01v8_hvt ad=0.145 pd=1.29 as=0.145 ps=1.29 w=1 l=1
X217 AVDD.t282 AVDD.t281 AVDD.t282 AVDD.t141 sky130_fd_pr__pfet_01v8_hvt ad=0.145 pd=1.29 as=0 ps=0 w=1 l=1
X218 AVSS.t91 AVSS.t90 AVSS.t91 AVSS.t3 sky130_fd_pr__nfet_01v8 ad=0.145 pd=1.29 as=0 ps=0 w=1 l=1
X219 AVDD.t280 AVDD.t278 AVDD.t279 AVDD.t149 sky130_fd_pr__pfet_01v8_hvt ad=0.29 pd=2.58 as=0 ps=0 w=1 l=1
X220 a_4970_2724# VB1.t41 VB1.t42 AVDD.t27 sky130_fd_pr__pfet_01v8_hvt ad=0.145 pd=1.29 as=0.145 ps=1.29 w=1 l=1
X221 AVDD.t78 VB1.t156 a_4970_6484# AVDD.t20 sky130_fd_pr__pfet_01v8_hvt ad=0.29 pd=2.58 as=0.145 ps=1.29 w=1 l=1
X222 AVDD.t77 VB1.t157 a_4970_n2468# AVDD.t20 sky130_fd_pr__pfet_01v8_hvt ad=0.29 pd=2.58 as=0.145 ps=1.29 w=1 l=1
X223 a_2002_1638# VB1.t7 VB1.t8 AVDD.t29 sky130_fd_pr__pfet_01v8_hvt ad=0.145 pd=1.29 as=0.145 ps=1.29 w=1 l=1
X224 VB3.t23 VB1.t158 a_3228_n2468# AVDD.t15 sky130_fd_pr__pfet_01v8_hvt ad=0.145 pd=1.29 as=0.145 ps=1.29 w=1 l=1
X225 AVSS.t195 VB2.t54 a_9838_205# AVSS.t182 sky130_fd_pr__nfet_01v8 ad=0.29 pd=2.58 as=0.145 ps=1.29 w=1 l=1
X226 VB3.t19 VB1.t159 a_1486_5597# AVDD.t18 sky130_fd_pr__pfet_01v8_hvt ad=0.145 pd=1.29 as=0.145 ps=1.29 w=1 l=1
X227 a_8132_205# VB2.t55 VB4.t11 AVSS.t194 sky130_fd_pr__nfet_01v8 ad=0.145 pd=1.29 as=0.29 ps=2.58 w=1 l=1
X228 AVDD.t277 AVDD.t276 AVDD.t277 AVDD.t144 sky130_fd_pr__pfet_01v8_hvt ad=0.145 pd=1.29 as=0 ps=0 w=1 l=1
X229 VB1.t26 VB1.t25 a_1486_1638# AVDD.t18 sky130_fd_pr__pfet_01v8_hvt ad=0.145 pd=1.29 as=0.145 ps=1.29 w=1 l=1
X230 AVDD.t12 VB1.t160 a_3744_4093# AVDD.t11 sky130_fd_pr__pfet_01v8_hvt ad=0.29 pd=2.58 as=0.145 ps=1.29 w=1 l=1
X231 a_1486_5597# VB1.t161 AVDD.t76 AVDD.t38 sky130_fd_pr__pfet_01v8_hvt ad=0.145 pd=1.29 as=0.29 ps=2.58 w=1 l=1
X232 AVDD.t275 AVDD.t274 AVDD.t275 AVDD.t144 sky130_fd_pr__pfet_01v8_hvt ad=0.145 pd=1.29 as=0 ps=0 w=1 l=1
X233 AVSS.t89 AVSS.t88 AVSS.t89 AVSS.t0 sky130_fd_pr__nfet_01v8 ad=0.145 pd=1.29 as=0 ps=0 w=1 l=1
X234 AVDD.t273 AVDD.t272 AVDD.t273 AVDD.t1 sky130_fd_pr__pfet_01v8_hvt ad=0.145 pd=1.29 as=0 ps=0 w=1 l=1
X235 AVDD.t271 AVDD.t270 AVDD.t271 AVDD.t144 sky130_fd_pr__pfet_01v8_hvt ad=0.145 pd=1.29 as=0 ps=0 w=1 l=1
X236 AVDD.t269 AVDD.t268 AVDD.t269 AVDD.t141 sky130_fd_pr__pfet_01v8_hvt ad=0.145 pd=1.29 as=0 ps=0 w=1 l=1
X237 a_3744_n1581# VB1.t162 VB2.t5 AVDD.t22 sky130_fd_pr__pfet_01v8_hvt ad=0.145 pd=1.29 as=0.145 ps=1.29 w=1 l=1
X238 a_10691_205# IREF.t19 AVSS.t203 AVSS.t188 sky130_fd_pr__nfet_01v8 ad=0.145 pd=1.29 as=0.29 ps=2.58 w=1 l=1
X239 AVDD.t267 AVDD.t265 AVDD.t266 AVDD.t192 sky130_fd_pr__pfet_01v8_hvt ad=0.29 pd=2.58 as=0 ps=0 w=1 l=1
X240 AVDD.t74 VB1.t163 a_2712_n77# AVDD.t35 sky130_fd_pr__pfet_01v8_hvt ad=0.145 pd=1.29 as=0.145 ps=1.29 w=1 l=1
X241 a_1486_1638# VB1.t164 AVDD.t75 AVDD.t38 sky130_fd_pr__pfet_01v8_hvt ad=0.145 pd=1.29 as=0.29 ps=2.58 w=1 l=1
X242 AVDD.t73 VB1.t165 a_4970_n964# AVDD.t20 sky130_fd_pr__pfet_01v8_hvt ad=0.29 pd=2.58 as=0.145 ps=1.29 w=1 l=1
X243 a_4454_n1581# VB1.t166 AVDD.t72 AVDD.t16 sky130_fd_pr__pfet_01v8_hvt ad=0.145 pd=1.29 as=0.29 ps=2.58 w=1 l=1
X244 a_3228_n2468# VB1.t167 AVDD.t71 AVDD.t32 sky130_fd_pr__pfet_01v8_hvt ad=0.145 pd=1.29 as=0.145 ps=1.29 w=1 l=1
X245 VB3.t22 VB1.t168 a_4454_n77# AVDD.t23 sky130_fd_pr__pfet_01v8_hvt ad=0.145 pd=1.29 as=0.145 ps=1.29 w=1 l=1
X246 a_3744_4093# VB1.t169 VB2.t13 AVDD.t22 sky130_fd_pr__pfet_01v8_hvt ad=0.145 pd=1.29 as=0.145 ps=1.29 w=1 l=1
X247 AVDD.t264 AVDD.t263 AVDD.t264 AVDD.t0 sky130_fd_pr__pfet_01v8_hvt ad=0.145 pd=1.29 as=0 ps=0 w=1 l=1
X248 a_1486_n2468# VB1.t170 AVDD.t70 AVDD.t38 sky130_fd_pr__pfet_01v8_hvt ad=0.145 pd=1.29 as=0.29 ps=2.58 w=1 l=1
X249 AVSS.t87 AVSS.t84 AVSS.t86 AVSS.t85 sky130_fd_pr__nfet_01v8 ad=0.29 pd=2.58 as=0 ps=0 w=1 l=1
X250 AVDD.t69 VB1.t171 a_4970_2724# AVDD.t20 sky130_fd_pr__pfet_01v8_hvt ad=0.29 pd=2.58 as=0.145 ps=1.29 w=1 l=1
X251 AVDD.t68 VB1.t172 a_2002_n3085# AVDD.t8 sky130_fd_pr__pfet_01v8_hvt ad=0.29 pd=2.58 as=0.145 ps=1.29 w=1 l=1
X252 a_2712_4980# VB1.t173 VB3.t28 AVDD.t19 sky130_fd_pr__pfet_01v8_hvt ad=0.145 pd=1.29 as=0.29 ps=2.58 w=1 l=1
X253 AVSS.t83 AVSS.t81 AVSS.t83 AVSS.t82 sky130_fd_pr__nfet_01v8 ad=0.145 pd=1.29 as=0 ps=0 w=1 l=1
X254 VB2.t2 VB1.t174 a_3228_4093# AVDD.t15 sky130_fd_pr__pfet_01v8_hvt ad=0.145 pd=1.29 as=0.145 ps=1.29 w=1 l=1
X255 AVSS.t205 IREF.t20 a_8132_2488# AVSS.t180 sky130_fd_pr__nfet_01v8 ad=0.29 pd=2.58 as=0.145 ps=1.29 w=1 l=1
X256 a_2712_2103# VB1.t39 VB1.t40 AVDD.t19 sky130_fd_pr__pfet_01v8_hvt ad=0.145 pd=1.29 as=0.29 ps=2.58 w=1 l=1
X257 VB3.t11 VB1.t175 a_1486_n1581# AVDD.t18 sky130_fd_pr__pfet_01v8_hvt ad=0.145 pd=1.29 as=0.145 ps=1.29 w=1 l=1
X258 AVDD.t262 AVDD.t260 AVDD.t261 AVDD.t130 sky130_fd_pr__pfet_01v8_hvt ad=0.29 pd=2.58 as=0 ps=0 w=1 l=1
X259 AVDD.t259 AVDD.t257 AVDD.t258 AVDD.t2 sky130_fd_pr__pfet_01v8_hvt ad=0.29 pd=2.58 as=0 ps=0 w=1 l=1
X260 AVDD.t256 AVDD.t255 AVDD.t256 AVDD.t29 sky130_fd_pr__pfet_01v8_hvt ad=0.145 pd=1.29 as=0 ps=0 w=1 l=1
X261 AVSS.t181 IREF.t21 a_8132_1583# AVSS.t180 sky130_fd_pr__nfet_01v8 ad=0.29 pd=2.58 as=0.145 ps=1.29 w=1 l=1
X262 AVDD.t67 VB1.t176 a_3744_3472# AVDD.t11 sky130_fd_pr__pfet_01v8_hvt ad=0.29 pd=2.58 as=0.145 ps=1.29 w=1 l=1
X263 AVDD.t254 AVDD.t253 AVDD.t254 AVDD.t8 sky130_fd_pr__pfet_01v8_hvt ad=0.145 pd=1.29 as=0 ps=0 w=1 l=1
X264 a_4970_4980# VB1.t177 VB2.t15 AVDD.t27 sky130_fd_pr__pfet_01v8_hvt ad=0.145 pd=1.29 as=0.145 ps=1.29 w=1 l=1
X265 VB2.t32 VB1.t178 a_3228_n77# AVDD.t15 sky130_fd_pr__pfet_01v8_hvt ad=0.145 pd=1.29 as=0.145 ps=1.29 w=1 l=1
X266 a_2002_1009# VB1.t49 VB1.t50 AVDD.t29 sky130_fd_pr__pfet_01v8_hvt ad=0.145 pd=1.29 as=0.145 ps=1.29 w=1 l=1
X267 AVDD.t66 VB1.t179 a_4970_n77# AVDD.t20 sky130_fd_pr__pfet_01v8_hvt ad=0.29 pd=2.58 as=0.145 ps=1.29 w=1 l=1
X268 AVDD.t65 VB1.t180 a_2002_6484# AVDD.t8 sky130_fd_pr__pfet_01v8_hvt ad=0.29 pd=2.58 as=0.145 ps=1.29 w=1 l=1
X269 AVDD.t64 VB1.t181 a_2712_6484# AVDD.t35 sky130_fd_pr__pfet_01v8_hvt ad=0.145 pd=1.29 as=0.145 ps=1.29 w=1 l=1
X270 a_4970_2103# VB1.t9 VB1.t10 AVDD.t27 sky130_fd_pr__pfet_01v8_hvt ad=0.145 pd=1.29 as=0.145 ps=1.29 w=1 l=1
X271 AVDD.t252 AVDD.t251 AVDD.t252 AVDD.t144 sky130_fd_pr__pfet_01v8_hvt ad=0.145 pd=1.29 as=0 ps=0 w=1 l=1