* NGSPICE file created from ina_top.ext - technology: sky130A

.subckt ina_top VCM VI_1B IREF VI_1A VO2 VO1 VI_2A VI_2B AVDD AVSS
X0 dda_0.VD6 dda_0.VCMFB AVDD AVDD sky130_fd_pr__pfet_01v8_hvt ad=0.145 pd=1.29 as=0.29 ps=2.58 w=1 l=1
X1 AVSS AVSS AVSS AVSS sky130_fd_pr__nfet_01v8 ad=0.145 pd=1.29 as=0 ps=0 w=1 l=1
X2 AVDD AVDD AVDD AVDD sky130_fd_pr__pfet_01v8_hvt ad=0.29 pd=2.58 as=0 ps=0 w=1 l=1
X3 dda_0.VIT_P2 VB1 AVDD AVDD sky130_fd_pr__pfet_01v8_hvt ad=0.145 pd=1.29 as=0.29 ps=2.58 w=1 l=1
X4 AVSS AVSS AVSS AVSS sky130_fd_pr__nfet_01v8 ad=0.145 pd=1.29 as=0 ps=0 w=1 l=1
X5 dda_0.VIT_P2 VB1 AVDD AVDD sky130_fd_pr__pfet_01v8_hvt ad=0.145 pd=1.29 as=0.29 ps=2.58 w=1 l=1
X6 dda_0.VCMFB dda_0.VCMFB AVDD AVDD sky130_fd_pr__pfet_01v8_hvt ad=0.145 pd=1.29 as=0.29 ps=2.58 w=1 l=1
X7 a_11506_n10592# VB1 VB1 AVDD sky130_fd_pr__pfet_01v8_hvt ad=0.145 pd=1.29 as=0.29 ps=2.58 w=1 l=1
X8 AVDD AVDD AVDD AVDD sky130_fd_pr__pfet_01v8_hvt ad=0.29 pd=2.58 as=0 ps=0 w=1 l=1
X9 AVDD AVDD AVDD AVDD sky130_fd_pr__pfet_01v8_hvt ad=0.145 pd=1.29 as=0 ps=0 w=1 l=1
X10 VB1 VB1 a_12022_n10592# AVDD sky130_fd_pr__pfet_01v8_hvt ad=0.145 pd=1.29 as=0.145 ps=1.29 w=1 l=1
X11 AVDD AVDD AVDD AVDD sky130_fd_pr__pfet_01v8_hvt ad=0.145 pd=1.29 as=0 ps=0 w=1 l=1
X12 AVSS VB2 dda_0.VIT_N2 AVSS sky130_fd_pr__nfet_01v8 ad=0.29 pd=2.58 as=0.145 ps=1.29 w=1 l=1
X13 AVDD AVDD AVDD AVDD sky130_fd_pr__pfet_01v8_hvt ad=0.145 pd=1.29 as=0 ps=0 w=1 l=1
X14 AVDD AVDD AVDD AVDD sky130_fd_pr__pfet_01v8_hvt ad=0.145 pd=1.29 as=0 ps=0 w=1 l=1
X15 AVDD AVDD AVDD AVDD sky130_fd_pr__pfet_01v8_hvt ad=0.29 pd=2.58 as=0 ps=0 w=1 l=1
X16 dda_0.VIT_P2 VB1 AVDD AVDD sky130_fd_pr__pfet_01v8_hvt ad=0.145 pd=1.29 as=0.29 ps=2.58 w=1 l=1
X17 AVDD dda_0.VD1 dda_0.VD1 AVDD sky130_fd_pr__pfet_01v8_hvt ad=0.145 pd=1.29 as=0.145 ps=1.29 w=1 l=1
X18 AVDD AVDD AVDD AVDD sky130_fd_pr__pfet_01v8_hvt ad=0.145 pd=1.29 as=0 ps=0 w=1 l=1
X19 AVDD AVDD AVDD AVDD sky130_fd_pr__pfet_01v8_hvt ad=0.29 pd=2.58 as=0 ps=0 w=1 l=1
X20 AVDD AVDD AVDD AVDD sky130_fd_pr__pfet_01v8_hvt ad=0.29 pd=2.58 as=0 ps=0 w=1 l=1
X21 dda_0.VD5 dda_0.VCMFB AVDD AVDD sky130_fd_pr__pfet_01v8_hvt ad=0.145 pd=1.29 as=0.145 ps=1.29 w=1 l=1
X22 AVDD AVDD AVDD AVDD sky130_fd_pr__pfet_01v8_hvt ad=0.29 pd=2.58 as=0 ps=0 w=1 l=1
X23 a_11506_n12307# VB1 VB1 AVDD sky130_fd_pr__pfet_01v8_hvt ad=0.145 pd=1.29 as=0.29 ps=2.58 w=1 l=1
X24 AVDD AVDD AVDD AVDD sky130_fd_pr__pfet_01v8_hvt ad=0.29 pd=2.58 as=0 ps=0 w=1 l=1
X25 AVDD AVDD AVDD AVDD sky130_fd_pr__pfet_01v8_hvt ad=0.29 pd=2.58 as=0 ps=0 w=1 l=1
X26 AVDD dda_0.VCMFB dda_0.VCMFB AVDD sky130_fd_pr__pfet_01v8_hvt ad=0.145 pd=1.29 as=0.145 ps=1.29 w=1 l=1
X27 AVDD AVDD AVDD AVDD sky130_fd_pr__pfet_01v8_hvt ad=0.145 pd=1.29 as=0 ps=0 w=1 l=1
X28 AVSS AVSS AVSS AVSS sky130_fd_pr__nfet_01v8 ad=0.29 pd=2.58 as=0 ps=0 w=1 l=1
X29 AVDD AVDD AVDD AVDD sky130_fd_pr__pfet_01v8_hvt ad=0.145 pd=1.29 as=0 ps=0 w=1 l=1
X30 dda_0.SUM_P VI_1A dda_0.VIT_P1 AVDD sky130_fd_pr__pfet_01v8_hvt ad=0.145 pd=1.29 as=0.29 ps=2.58 w=1 l=1
X31 AVSS IREF a_20338_n10828# AVSS sky130_fd_pr__nfet_01v8 ad=0.29 pd=2.58 as=0.145 ps=1.29 w=1 l=1
X32 VB1 VB1 a_12022_n12307# AVDD sky130_fd_pr__pfet_01v8_hvt ad=0.145 pd=1.29 as=0.145 ps=1.29 w=1 l=1
X33 VO1 VB4 dda_0.VD5 AVDD sky130_fd_pr__pfet_01v8_hvt ad=0.145 pd=1.29 as=0.145 ps=1.29 w=1 l=1
X34 AVDD AVDD AVDD AVDD sky130_fd_pr__pfet_01v8_hvt ad=0.29 pd=2.58 as=0 ps=0 w=1 l=1
X35 AVDD AVDD AVDD AVDD sky130_fd_pr__pfet_01v8_hvt ad=0.29 pd=2.58 as=0 ps=0 w=1 l=1
X36 AVDD dda_0.VD1 dda_0.VD1 AVDD sky130_fd_pr__pfet_01v8_hvt ad=0.29 pd=2.58 as=0.145 ps=1.29 w=1 l=1
X37 AVDD AVDD AVDD AVDD sky130_fd_pr__pfet_01v8_hvt ad=0.145 pd=1.29 as=0 ps=0 w=1 l=1
X38 AVDD VB1 dda_0.VIT_P2 AVDD sky130_fd_pr__pfet_01v8_hvt ad=0.145 pd=1.29 as=0.145 ps=1.29 w=1 l=1
X39 AVDD dda_0.VCMFB dda_0.VCMFB AVDD sky130_fd_pr__pfet_01v8_hvt ad=0.145 pd=1.29 as=0.29 ps=2.58 w=1 l=1
X40 AVDD AVDD AVDD AVDD sky130_fd_pr__pfet_01v8_hvt ad=0.145 pd=1.29 as=0 ps=0 w=1 l=1
X41 AVDD AVDD AVDD AVDD sky130_fd_pr__pfet_01v8_hvt ad=0.29 pd=2.58 as=0 ps=0 w=1 l=1
X42 AVDD VB1 a_11506_n14280# AVDD sky130_fd_pr__pfet_01v8_hvt ad=0.145 pd=1.29 as=0.145 ps=1.29 w=1 l=1
X43 dda_0.VIT_P2 VB1 AVDD AVDD sky130_fd_pr__pfet_01v8_hvt ad=0.145 pd=1.29 as=0.145 ps=1.29 w=1 l=1
X44 AVDD AVDD AVDD AVDD sky130_fd_pr__pfet_01v8_hvt ad=0.29 pd=2.58 as=0 ps=0 w=1 l=1
X45 AVDD AVDD AVDD AVDD sky130_fd_pr__pfet_01v8_hvt ad=0.29 pd=2.58 as=0 ps=0 w=1 l=1
X46 AVDD AVDD AVDD AVDD sky130_fd_pr__pfet_01v8_hvt ad=0.29 pd=2.58 as=0 ps=0 w=1 l=1
X47 dda_0.VIT_P2 VI_2A dda_0.SUM_N AVDD sky130_fd_pr__pfet_01v8_hvt ad=0.29 pd=2.58 as=0.145 ps=1.29 w=1 l=1
X48 VB1 VB1 a_13248_n12774# AVDD sky130_fd_pr__pfet_01v8_hvt ad=0.145 pd=1.29 as=0.145 ps=1.29 w=1 l=1
X49 AVDD AVDD AVDD AVDD sky130_fd_pr__pfet_01v8_hvt ad=0.29 pd=2.58 as=0 ps=0 w=1 l=1
X50 AVDD dda_0.VCMFB dda_0.VCMFB AVDD sky130_fd_pr__pfet_01v8_hvt ad=0.145 pd=1.29 as=0.145 ps=1.29 w=1 l=1
X51 dda_0.VIT_P2 VI_2A dda_0.SUM_N AVDD sky130_fd_pr__pfet_01v8_hvt ad=0.145 pd=1.29 as=0.145 ps=1.29 w=1 l=1
X52 dda_0.VIT_N1 VB2 AVSS AVSS sky130_fd_pr__nfet_01v8 ad=0.145 pd=1.29 as=0.29 ps=2.58 w=1 l=1
X53 dda_0.VCMFB dda_0.VCMFB AVDD AVDD sky130_fd_pr__pfet_01v8_hvt ad=0.145 pd=1.29 as=0.29 ps=2.58 w=1 l=1
X54 dda_0.SUM_P VI_2B dda_0.VIT_P2 AVDD sky130_fd_pr__pfet_01v8_hvt ad=0.145 pd=1.29 as=0.29 ps=2.58 w=1 l=1
X55 VO2 VB4 dda_0.VD6 AVDD sky130_fd_pr__pfet_01v8_hvt ad=0.145 pd=1.29 as=0.29 ps=2.58 w=1 l=1
X56 dda_0.SUM_P VI_2B dda_0.VIT_P2 AVDD sky130_fd_pr__pfet_01v8_hvt ad=0.145 pd=1.29 as=0.29 ps=2.58 w=1 l=1
X57 a_19313_n7321# VB4 AVDD AVDD sky130_fd_pr__pfet_01v8_hvt ad=0.145 pd=1.29 as=0.29 ps=2.58 w=1 l=1
X58 AVDD VB1 dda_0.VIT_P1 AVDD sky130_fd_pr__pfet_01v8_hvt ad=0.145 pd=1.29 as=0.145 ps=1.29 w=1 l=1
X59 dda_0.VIT_P1 VB1 AVDD AVDD sky130_fd_pr__pfet_01v8_hvt ad=0.145 pd=1.29 as=0.29 ps=2.58 w=1 l=1
X60 AVDD VB1 dda_0.VIT_P1 AVDD sky130_fd_pr__pfet_01v8_hvt ad=0.29 pd=2.58 as=0.145 ps=1.29 w=1 l=1
X61 AVDD VB1 dda_0.VIT_P2 AVDD sky130_fd_pr__pfet_01v8_hvt ad=0.145 pd=1.29 as=0.145 ps=1.29 w=1 l=1
X62 dda_0.VIT_P1 VI_1B dda_0.SUM_N AVDD sky130_fd_pr__pfet_01v8_hvt ad=0.29 pd=2.58 as=0.145 ps=1.29 w=1 l=1
X63 AVDD AVDD AVDD AVDD sky130_fd_pr__pfet_01v8_hvt ad=0.29 pd=2.58 as=0 ps=0 w=1 l=1
X64 dda_0.VD5 VB4 VO1 AVDD sky130_fd_pr__pfet_01v8_hvt ad=0.29 pd=2.58 as=0.145 ps=1.29 w=1 l=1
X65 dda_0.VIT_P1 VI_1B dda_0.SUM_N AVDD sky130_fd_pr__pfet_01v8_hvt ad=0.29 pd=2.58 as=0.145 ps=1.29 w=1 l=1
X66 AVDD AVDD AVDD AVDD sky130_fd_pr__pfet_01v8_hvt ad=0.29 pd=2.58 as=0 ps=0 w=1 l=1
X67 AVSS AVSS AVSS AVSS sky130_fd_pr__nfet_01v8 ad=0.145 pd=1.29 as=0 ps=0 w=1 l=1
X68 AVDD AVDD AVDD AVDD sky130_fd_pr__pfet_01v8_hvt ad=0.145 pd=1.29 as=0 ps=0 w=1 l=1
X69 VO1 VB4 dda_0.VD5 AVDD sky130_fd_pr__pfet_01v8_hvt ad=0.145 pd=1.29 as=0.145 ps=1.29 w=1 l=1
X70 dda_0.VD6 VB4 VO2 AVDD sky130_fd_pr__pfet_01v8_hvt ad=0.29 pd=2.58 as=0.145 ps=1.29 w=1 l=1
X71 AVSS VB2 a_16926_n13111# AVSS sky130_fd_pr__nfet_01v8 ad=0.29 pd=2.58 as=0.145 ps=1.29 w=1 l=1
X72 AVDD VB1 a_10796_n11678# AVDD sky130_fd_pr__pfet_01v8_hvt ad=0.29 pd=2.58 as=0.145 ps=1.29 w=1 l=1
X73 dda_0.VD1 dda_0.VD1 AVDD AVDD sky130_fd_pr__pfet_01v8_hvt ad=0.145 pd=1.29 as=0.145 ps=1.29 w=1 l=1
X74 AVDD VB1 dda_0.VIT_P2 AVDD sky130_fd_pr__pfet_01v8_hvt ad=0.29 pd=2.58 as=0.145 ps=1.29 w=1 l=1
X75 AVDD AVDD AVDD AVDD sky130_fd_pr__pfet_01v8_hvt ad=0.29 pd=2.58 as=0 ps=0 w=1 l=1
X76 AVSS AVSS AVSS AVSS sky130_fd_pr__nfet_01v8 ad=0.145 pd=1.29 as=0 ps=0 w=1 l=1
X77 AVDD dda_0.VD2 dda_0.VD2 AVDD sky130_fd_pr__pfet_01v8_hvt ad=0.145 pd=1.29 as=0.145 ps=1.29 w=1 l=1
X78 AVDD dda_0.VD1 dda_0.VD1 AVDD sky130_fd_pr__pfet_01v8_hvt ad=0.29 pd=2.58 as=0.145 ps=1.29 w=1 l=1
X79 AVDD VB1 a_12538_n11213# AVDD sky130_fd_pr__pfet_01v8_hvt ad=0.29 pd=2.58 as=0.145 ps=1.29 w=1 l=1
X80 AVDD AVDD AVDD AVDD sky130_fd_pr__pfet_01v8_hvt ad=0.145 pd=1.29 as=0 ps=0 w=1 l=1
X81 AVDD dda_0.VCMFB dda_0.VCMFB AVDD sky130_fd_pr__pfet_01v8_hvt ad=0.145 pd=1.29 as=0.29 ps=2.58 w=1 l=1
X82 AVDD AVDD AVDD AVDD sky130_fd_pr__pfet_01v8_hvt ad=0.145 pd=1.29 as=0 ps=0 w=1 l=1
X83 VO2 VB4 dda_0.VD6 AVDD sky130_fd_pr__pfet_01v8_hvt ad=0.145 pd=1.29 as=0.145 ps=1.29 w=1 l=1
X84 AVDD AVDD AVDD AVDD sky130_fd_pr__pfet_01v8_hvt ad=0.145 pd=1.29 as=0 ps=0 w=1 l=1
X85 AVDD dda_0.VCMFB dda_0.VD5 AVDD sky130_fd_pr__pfet_01v8_hvt ad=0.145 pd=1.29 as=0.145 ps=1.29 w=1 l=1
X86 dda_0.VD6 dda_0.VCMFB AVDD AVDD sky130_fd_pr__pfet_01v8_hvt ad=0.29 pd=2.58 as=0.145 ps=1.29 w=1 l=1
X87 dda_0.SUM_N VI_2A dda_0.VIT_P2 AVDD sky130_fd_pr__pfet_01v8_hvt ad=0.145 pd=1.29 as=0.145 ps=1.29 w=1 l=1
X88 AVSS AVSS AVSS AVSS sky130_fd_pr__nfet_01v8 ad=0.145 pd=1.29 as=0 ps=0 w=1 l=1
X89 dda_0.VD5 VB4 VO1 AVDD sky130_fd_pr__pfet_01v8_hvt ad=0.145 pd=1.29 as=0.145 ps=1.29 w=1 l=1
X90 AVDD AVDD AVDD AVDD sky130_fd_pr__pfet_01v8_hvt ad=0.145 pd=1.29 as=0 ps=0 w=1 l=1
X91 dda_0.VIT_P2 VB1 AVDD AVDD sky130_fd_pr__pfet_01v8_hvt ad=0.145 pd=1.29 as=0.29 ps=2.58 w=1 l=1
X92 dda_0.SUM_P VI_2B dda_0.VIT_P2 AVDD sky130_fd_pr__pfet_01v8_hvt ad=0.145 pd=1.29 as=0.145 ps=1.29 w=1 l=1
X93 dda_0.SUM_N VI_1B dda_0.VIT_P1 AVDD sky130_fd_pr__pfet_01v8_hvt ad=0.145 pd=1.29 as=0.29 ps=2.58 w=1 l=1
X94 AVDD AVDD AVDD AVDD sky130_fd_pr__pfet_01v8_hvt ad=0.29 pd=2.58 as=0 ps=0 w=1 l=1
X95 AVDD AVDD AVDD AVDD sky130_fd_pr__pfet_01v8_hvt ad=0.29 pd=2.58 as=0 ps=0 w=1 l=1
X96 AVDD AVDD AVDD AVDD sky130_fd_pr__pfet_01v8_hvt ad=0.29 pd=2.58 as=0 ps=0 w=1 l=1
X97 dda_0.VIT_P1 VI_1B dda_0.SUM_N AVDD sky130_fd_pr__pfet_01v8_hvt ad=0.29 pd=2.58 as=0.145 ps=1.29 w=1 l=1
X98 a_10280_n6832# VB1 AVDD AVDD sky130_fd_pr__pfet_01v8_hvt ad=0.145 pd=1.29 as=0.29 ps=2.58 w=1 l=1
X99 VO1 VB4 dda_0.VD5 AVDD sky130_fd_pr__pfet_01v8_hvt ad=0.145 pd=1.29 as=0.29 ps=2.58 w=1 l=1
X100 VO2 VB3 dda_0.SUM_N AVSS sky130_fd_pr__nfet_01v8 ad=0.145 pd=1.29 as=0.29 ps=2.58 w=1 l=1
X101 dda_0.VIT_P2 VI_2A dda_0.SUM_N AVDD sky130_fd_pr__pfet_01v8_hvt ad=0.145 pd=1.29 as=0.145 ps=1.29 w=1 l=1
X102 AVDD AVDD AVDD AVDD sky130_fd_pr__pfet_01v8_hvt ad=0.145 pd=1.29 as=0 ps=0 w=1 l=1
X103 dda_0.SUM_P VI_2B dda_0.VIT_P2 AVDD sky130_fd_pr__pfet_01v8_hvt ad=0.145 pd=1.29 as=0.145 ps=1.29 w=1 l=1
X104 dda_0.VD6 VB4 VO2 AVDD sky130_fd_pr__pfet_01v8_hvt ad=0.29 pd=2.58 as=0.145 ps=1.29 w=1 l=1
X105 AVDD AVDD AVDD AVDD sky130_fd_pr__pfet_01v8_hvt ad=0.145 pd=1.29 as=0 ps=0 w=1 l=1
X106 AVDD AVDD AVDD AVDD sky130_fd_pr__pfet_01v8_hvt ad=0.29 pd=2.58 as=0 ps=0 w=1 l=1
X107 AVDD AVDD AVDD AVDD sky130_fd_pr__pfet_01v8_hvt ad=0.145 pd=1.29 as=0 ps=0 w=1 l=1
X108 AVDD AVDD AVDD AVDD sky130_fd_pr__pfet_01v8_hvt ad=0.145 pd=1.29 as=0 ps=0 w=1 l=1
X109 dda_0.VIT_P2 VI_2A dda_0.SUM_N AVDD sky130_fd_pr__pfet_01v8_hvt ad=0.145 pd=1.29 as=0.145 ps=1.29 w=1 l=1
X110 AVDD VB1 dda_0.VIT_P2 AVDD sky130_fd_pr__pfet_01v8_hvt ad=0.29 pd=2.58 as=0.145 ps=1.29 w=1 l=1
X111 AVDD VB1 dda_0.VIT_P1 AVDD sky130_fd_pr__pfet_01v8_hvt ad=0.145 pd=1.29 as=0.145 ps=1.29 w=1 l=1
X112 dda_0.VD1 dda_0.VD1 AVDD AVDD sky130_fd_pr__pfet_01v8_hvt ad=0.29 pd=2.58 as=0.145 ps=1.29 w=1 l=1
X113 AVDD AVDD AVDD AVDD sky130_fd_pr__pfet_01v8_hvt ad=0.29 pd=2.58 as=0 ps=0 w=1 l=1
X114 AVDD dda_0.VD2 dda_0.VD2 AVDD sky130_fd_pr__pfet_01v8_hvt ad=0.145 pd=1.29 as=0.145 ps=1.29 w=1 l=1
X115 AVDD AVDD AVDD AVDD sky130_fd_pr__pfet_01v8_hvt ad=0.29 pd=2.58 as=0 ps=0 w=1 l=1
X116 AVDD dda_0.VCMFB dda_0.VCMFB AVDD sky130_fd_pr__pfet_01v8_hvt ad=0.29 pd=2.58 as=0.145 ps=1.29 w=1 l=1
X117 VB3 VB1 a_13248_n14897# AVDD sky130_fd_pr__pfet_01v8_hvt ad=0.145 pd=1.29 as=0.145 ps=1.29 w=1 l=1
X118 dda_0.SUM_N VI_2A dda_0.VIT_P2 AVDD sky130_fd_pr__pfet_01v8_hvt ad=0.145 pd=1.29 as=0.29 ps=2.58 w=1 l=1
X119 AVSS AVSS AVSS AVSS sky130_fd_pr__nfet_01v8 ad=0.145 pd=1.29 as=0 ps=0 w=1 l=1
X120 VB1 VB1 a_10280_n10592# AVDD sky130_fd_pr__pfet_01v8_hvt ad=0.145 pd=1.29 as=0.145 ps=1.29 w=1 l=1
X121 AVDD AVDD AVDD AVDD sky130_fd_pr__pfet_01v8_hvt ad=0.29 pd=2.58 as=0 ps=0 w=1 l=1
X122 dda_0.SUM_N VI_1B dda_0.VIT_P1 AVDD sky130_fd_pr__pfet_01v8_hvt ad=0.145 pd=1.29 as=0.145 ps=1.29 w=1 l=1
X123 AVDD AVDD AVDD AVDD sky130_fd_pr__pfet_01v8_hvt ad=0.145 pd=1.29 as=0 ps=0 w=1 l=1
X124 AVDD AVDD AVDD AVDD sky130_fd_pr__pfet_01v8_hvt ad=0.29 pd=2.58 as=0 ps=0 w=1 l=1
X125 AVSS AVSS AVSS AVSS sky130_fd_pr__nfet_01v8 ad=0.29 pd=2.58 as=0 ps=0 w=1 l=1
X126 VB4 VB4 a_19571_n6554# AVDD sky130_fd_pr__pfet_01v8_hvt ad=0.29 pd=2.58 as=0.145 ps=1.29 w=1 l=1
X127 VO1 VB4 dda_0.VD5 AVDD sky130_fd_pr__pfet_01v8_hvt ad=0.29 pd=2.58 as=0.145 ps=1.29 w=1 l=1
X128 AVDD AVDD AVDD AVDD sky130_fd_pr__pfet_01v8_hvt ad=0.145 pd=1.29 as=0 ps=0 w=1 l=1
X129 AVDD VB1 dda_0.VIT_P2 AVDD sky130_fd_pr__pfet_01v8_hvt ad=0.29 pd=2.58 as=0.145 ps=1.29 w=1 l=1
X130 dda_0.SUM_N VI_1B dda_0.VIT_P1 AVDD sky130_fd_pr__pfet_01v8_hvt ad=0.145 pd=1.29 as=0.145 ps=1.29 w=1 l=1
X131 dda_0.VIT_P1 VI_1A dda_0.SUM_P AVDD sky130_fd_pr__pfet_01v8_hvt ad=0.145 pd=1.29 as=0.29 ps=2.58 w=1 l=1
X132 AVDD AVDD AVDD AVDD sky130_fd_pr__pfet_01v8_hvt ad=0.29 pd=2.58 as=0 ps=0 w=1 l=1
X133 AVDD dda_0.VCMFB dda_0.VD6 AVDD sky130_fd_pr__pfet_01v8_hvt ad=0.29 pd=2.58 as=0.145 ps=1.29 w=1 l=1
X134 AVSS IREF a_16926_n10828# AVSS sky130_fd_pr__nfet_01v8 ad=0.29 pd=2.58 as=0.145 ps=1.29 w=1 l=1
X135 AVDD AVDD AVDD AVDD sky130_fd_pr__pfet_01v8_hvt ad=0.145 pd=1.29 as=0 ps=0 w=1 l=1
X136 AVDD AVDD AVDD AVDD sky130_fd_pr__pfet_01v8_hvt ad=0.145 pd=1.29 as=0 ps=0 w=1 l=1
X137 AVSS VB2 dda_0.SUM_P AVSS sky130_fd_pr__nfet_01v8 ad=0.29 pd=2.58 as=0.145 ps=1.29 w=1 l=1
X138 AVSS AVSS AVSS AVSS sky130_fd_pr__nfet_01v8 ad=0.29 pd=2.58 as=0 ps=0 w=1 l=1
X139 AVDD AVDD AVDD AVDD sky130_fd_pr__pfet_01v8_hvt ad=0.145 pd=1.29 as=0 ps=0 w=1 l=1
X140 AVDD VB1 dda_0.VIT_P2 AVDD sky130_fd_pr__pfet_01v8_hvt ad=0.29 pd=2.58 as=0.145 ps=1.29 w=1 l=1
X141 dda_0.VD5 dda_0.VCMFB AVDD AVDD sky130_fd_pr__pfet_01v8_hvt ad=0.145 pd=1.29 as=0.29 ps=2.58 w=1 l=1
X142 dda_0.VD5 VB4 VO1 AVDD sky130_fd_pr__pfet_01v8_hvt ad=0.145 pd=1.29 as=0.29 ps=2.58 w=1 l=1
X143 AVDD AVDD AVDD AVDD sky130_fd_pr__pfet_01v8_hvt ad=0.29 pd=2.58 as=0 ps=0 w=1 l=1
X144 VB1 VB1 a_10280_n12307# AVDD sky130_fd_pr__pfet_01v8_hvt ad=0.145 pd=1.29 as=0.145 ps=1.29 w=1 l=1
X145 AVDD AVDD AVDD AVDD sky130_fd_pr__pfet_01v8_hvt ad=0.145 pd=1.29 as=0 ps=0 w=1 l=1
X146 dda_0.VIT_P1 VB1 AVDD AVDD sky130_fd_pr__pfet_01v8_hvt ad=0.145 pd=1.29 as=0.145 ps=1.29 w=1 l=1
X147 dda_0.VCMFB dda_0.VCMFB AVDD AVDD sky130_fd_pr__pfet_01v8_hvt ad=0.145 pd=1.29 as=0.145 ps=1.29 w=1 l=1
X148 dda_0.VD2 dda_0.VD2 AVDD AVDD sky130_fd_pr__pfet_01v8_hvt ad=0.145 pd=1.29 as=0.29 ps=2.58 w=1 l=1
X149 AVDD AVDD AVDD AVDD sky130_fd_pr__pfet_01v8_hvt ad=0.29 pd=2.58 as=0 ps=0 w=1 l=1
X150 AVDD dda_0.VCMFB dda_0.VCMFB AVDD sky130_fd_pr__pfet_01v8_hvt ad=0.145 pd=1.29 as=0.145 ps=1.29 w=1 l=1
X151 AVDD AVDD AVDD AVDD sky130_fd_pr__pfet_01v8_hvt ad=0.145 pd=1.29 as=0 ps=0 w=1 l=1
X152 dda_0.VIT_P1 VB1 AVDD AVDD sky130_fd_pr__pfet_01v8_hvt ad=0.145 pd=1.29 as=0.29 ps=2.58 w=1 l=1
X153 dda_0.VD1 dda_0.VD1 AVDD AVDD sky130_fd_pr__pfet_01v8_hvt ad=0.145 pd=1.29 as=0.29 ps=2.58 w=1 l=1
X154 AVSS AVSS AVSS AVSS sky130_fd_pr__nfet_01v8 ad=0.145 pd=1.29 as=0 ps=0 w=1 l=1
X155 dda_0.VD5 VB4 VO1 AVDD sky130_fd_pr__pfet_01v8_hvt ad=0.29 pd=2.58 as=0.145 ps=1.29 w=1 l=1
X156 AVDD VB1 dda_0.VIT_P1 AVDD sky130_fd_pr__pfet_01v8_hvt ad=0.145 pd=1.29 as=0.145 ps=1.29 w=1 l=1
X157 AVDD AVDD AVDD AVDD sky130_fd_pr__pfet_01v8_hvt ad=0.29 pd=2.58 as=0 ps=0 w=1 l=1
X158 dda_0.SUM_N VB2 AVSS AVSS sky130_fd_pr__nfet_01v8 ad=0.145 pd=1.29 as=0.29 ps=2.58 w=1 l=1
X159 AVSS VB2 dda_0.SUM_P AVSS sky130_fd_pr__nfet_01v8 ad=0.145 pd=1.29 as=0.145 ps=1.29 w=1 l=1
X160 a_10796_n14280# VB1 VB2 AVDD sky130_fd_pr__pfet_01v8_hvt ad=0.145 pd=1.29 as=0.145 ps=1.29 w=1 l=1
X161 AVDD dda_0.VCMFB dda_0.VD5 AVDD sky130_fd_pr__pfet_01v8_hvt ad=0.145 pd=1.29 as=0.145 ps=1.29 w=1 l=1
X162 AVDD AVDD AVDD AVDD sky130_fd_pr__pfet_01v8_hvt ad=0.145 pd=1.29 as=0 ps=0 w=1 l=1
X163 dda_0.VIT_P2 VI_2A dda_0.SUM_N AVDD sky130_fd_pr__pfet_01v8_hvt ad=0.145 pd=1.29 as=0.145 ps=1.29 w=1 l=1
X164 VO1 VB3 dda_0.SUM_P AVSS sky130_fd_pr__nfet_01v8 ad=0.145 pd=1.29 as=0.145 ps=1.29 w=1 l=1
X165 AVDD VB1 dda_0.VIT_P2 AVDD sky130_fd_pr__pfet_01v8_hvt ad=0.145 pd=1.29 as=0.145 ps=1.29 w=1 l=1
X166 AVDD AVDD AVDD AVDD sky130_fd_pr__pfet_01v8_hvt ad=0.29 pd=2.58 as=0 ps=0 w=1 l=1
X167 dda_0.VCMFB VCM dda_0.VIT_N2 AVSS sky130_fd_pr__nfet_01v8 ad=0.29 pd=2.58 as=0.145 ps=1.29 w=1 l=1
X168 AVDD AVDD AVDD AVDD sky130_fd_pr__pfet_01v8_hvt ad=0.145 pd=1.29 as=0 ps=0 w=1 l=1
X169 AVDD VB1 dda_0.VIT_P1 AVDD sky130_fd_pr__pfet_01v8_hvt ad=0.29 pd=2.58 as=0.145 ps=1.29 w=1 l=1
X170 a_12538_n12774# VB1 VB1 AVDD sky130_fd_pr__pfet_01v8_hvt ad=0.145 pd=1.29 as=0.145 ps=1.29 w=1 l=1
X171 AVDD AVDD AVDD AVDD sky130_fd_pr__pfet_01v8_hvt ad=0.29 pd=2.58 as=0 ps=0 w=1 l=1
X172 AVDD dda_0.VCMFB dda_0.VCMFB AVDD sky130_fd_pr__pfet_01v8_hvt ad=0.29 pd=2.58 as=0.145 ps=1.29 w=1 l=1
X173 dda_0.VIT_N2 VB2 AVSS AVSS sky130_fd_pr__nfet_01v8 ad=0.145 pd=1.29 as=0.29 ps=2.58 w=1 l=1
X174 AVDD AVDD AVDD AVDD sky130_fd_pr__pfet_01v8_hvt ad=0.145 pd=1.29 as=0 ps=0 w=1 l=1
X175 AVDD AVDD AVDD AVDD sky130_fd_pr__pfet_01v8_hvt ad=0.29 pd=2.58 as=0 ps=0 w=1 l=1
X176 dda_0.SUM_N VI_1B dda_0.VIT_P1 AVDD sky130_fd_pr__pfet_01v8_hvt ad=0.29 pd=2.58 as=0.145 ps=1.29 w=1 l=1
X177 AVDD AVDD AVDD AVDD sky130_fd_pr__pfet_01v8_hvt ad=0.145 pd=1.29 as=0 ps=0 w=1 l=1
X178 AVDD AVDD AVDD AVDD sky130_fd_pr__pfet_01v8_hvt ad=0.29 pd=2.58 as=0 ps=0 w=1 l=1
X179 AVDD AVDD AVDD AVDD sky130_fd_pr__pfet_01v8_hvt ad=0.29 pd=2.58 as=0 ps=0 w=1 l=1
X180 AVDD AVDD AVDD AVDD sky130_fd_pr__pfet_01v8_hvt ad=0.145 pd=1.29 as=0 ps=0 w=1 l=1
X181 dda_0.VIT_P2 VI_2B dda_0.SUM_P AVDD sky130_fd_pr__pfet_01v8_hvt ad=0.145 pd=1.29 as=0.145 ps=1.29 w=1 l=1
X182 AVSS AVSS AVSS AVSS sky130_fd_pr__nfet_01v8 ad=0.29 pd=2.58 as=0 ps=0 w=1 l=1
X183 VO1 VB4 dda_0.VD5 AVDD sky130_fd_pr__pfet_01v8_hvt ad=0.145 pd=1.29 as=0.29 ps=2.58 w=1 l=1
X184 AVDD AVDD AVDD AVDD sky130_fd_pr__pfet_01v8_hvt ad=0.29 pd=2.58 as=0 ps=0 w=1 l=1
X185 VO2 VB4 dda_0.VD6 AVDD sky130_fd_pr__pfet_01v8_hvt ad=0.145 pd=1.29 as=0.145 ps=1.29 w=1 l=1
X186 AVDD AVDD AVDD AVDD sky130_fd_pr__pfet_01v8_hvt ad=0.29 pd=2.58 as=0 ps=0 w=1 l=1
X187 AVSS AVSS AVSS AVSS sky130_fd_pr__nfet_01v8 ad=0.145 pd=1.29 as=0 ps=0 w=1 l=1
X188 dda_0.VD5 dda_0.VCMFB AVDD AVDD sky130_fd_pr__pfet_01v8_hvt ad=0.145 pd=1.29 as=0.145 ps=1.29 w=1 l=1
X189 dda_0.VD5 dda_0.VCMFB AVDD AVDD sky130_fd_pr__pfet_01v8_hvt ad=0.145 pd=1.29 as=0.29 ps=2.58 w=1 l=1
X190 AVSS AVSS AVSS AVSS sky130_fd_pr__nfet_01v8 ad=0.29 pd=2.58 as=0 ps=0 w=1 l=1
X191 AVDD AVDD AVDD AVDD sky130_fd_pr__pfet_01v8_hvt ad=0.145 pd=1.29 as=0 ps=0 w=1 l=1
X192 AVDD AVDD AVDD AVDD sky130_fd_pr__pfet_01v8_hvt ad=0.29 pd=2.58 as=0 ps=0 w=1 l=1
X193 dda_0.VIT_P1 VI_1A dda_0.SUM_P AVDD sky130_fd_pr__pfet_01v8_hvt ad=0.29 pd=2.58 as=0.145 ps=1.29 w=1 l=1
X194 AVDD AVDD AVDD AVDD sky130_fd_pr__pfet_01v8_hvt ad=0.145 pd=1.29 as=0 ps=0 w=1 l=1
X195 AVDD AVDD AVDD AVDD sky130_fd_pr__pfet_01v8_hvt ad=0.145 pd=1.29 as=0 ps=0 w=1 l=1
X196 dda_0.SUM_N VI_1B dda_0.VIT_P1 AVDD sky130_fd_pr__pfet_01v8_hvt ad=0.145 pd=1.29 as=0.145 ps=1.29 w=1 l=1
X197 AVDD AVDD AVDD AVDD sky130_fd_pr__pfet_01v8_hvt ad=0.145 pd=1.29 as=0 ps=0 w=1 l=1
X198 VO2 VB4 dda_0.VD6 AVDD sky130_fd_pr__pfet_01v8_hvt ad=0.145 pd=1.29 as=0.29 ps=2.58 w=1 l=1
X199 dda_0.VD5 VB4 VO1 AVDD sky130_fd_pr__pfet_01v8_hvt ad=0.145 pd=1.29 as=0.145 ps=1.29 w=1 l=1
X200 AVSS AVSS AVSS AVSS sky130_fd_pr__nfet_01v8 ad=0.29 pd=2.58 as=0 ps=0 w=1 l=1
X201 a_13764_n7719# VB1 VB3 AVDD sky130_fd_pr__pfet_01v8_hvt ad=0.145 pd=1.29 as=0.145 ps=1.29 w=1 l=1
X202 AVDD dda_0.VCMFB dda_0.VD5 AVDD sky130_fd_pr__pfet_01v8_hvt ad=0.145 pd=1.29 as=0.145 ps=1.29 w=1 l=1
X203 AVDD VB1 dda_0.VIT_P1 AVDD sky130_fd_pr__pfet_01v8_hvt ad=0.29 pd=2.58 as=0.145 ps=1.29 w=1 l=1
X204 dda_0.VD6 dda_0.VCMFB AVDD AVDD sky130_fd_pr__pfet_01v8_hvt ad=0.145 pd=1.29 as=0.29 ps=2.58 w=1 l=1
X205 AVDD AVDD AVDD AVDD sky130_fd_pr__pfet_01v8_hvt ad=0.29 pd=2.58 as=0 ps=0 w=1 l=1
X206 AVDD AVDD AVDD AVDD sky130_fd_pr__pfet_01v8_hvt ad=0.145 pd=1.29 as=0 ps=0 w=1 l=1
X207 a_13764_n9844# VB1 VB2 AVDD sky130_fd_pr__pfet_01v8_hvt ad=0.145 pd=1.29 as=0.145 ps=1.29 w=1 l=1
X208 AVDD AVDD AVDD AVDD sky130_fd_pr__pfet_01v8_hvt ad=0.145 pd=1.29 as=0 ps=0 w=1 l=1
X209 AVDD AVDD AVDD AVDD sky130_fd_pr__pfet_01v8_hvt ad=0.145 pd=1.29 as=0 ps=0 w=1 l=1
X210 dda_0.VD2 dda_0.VD2 AVDD AVDD sky130_fd_pr__pfet_01v8_hvt ad=0.145 pd=1.29 as=0.29 ps=2.58 w=1 l=1
X211 dda_0.VIT_P1 VB1 AVDD AVDD sky130_fd_pr__pfet_01v8_hvt ad=0.145 pd=1.29 as=0.29 ps=2.58 w=1 l=1
X212 AVDD AVDD AVDD AVDD sky130_fd_pr__pfet_01v8_hvt ad=0.29 pd=2.58 as=0 ps=0 w=1 l=1
X213 AVDD dda_0.VD1 dda_0.VD1 AVDD sky130_fd_pr__pfet_01v8_hvt ad=0.145 pd=1.29 as=0.145 ps=1.29 w=1 l=1
X214 AVDD VB1 dda_0.VIT_P2 AVDD sky130_fd_pr__pfet_01v8_hvt ad=0.29 pd=2.58 as=0.145 ps=1.29 w=1 l=1
X215 AVDD AVDD AVDD AVDD sky130_fd_pr__pfet_01v8_hvt ad=0.145 pd=1.29 as=0 ps=0 w=1 l=1
X216 dda_0.VIT_P2 VB1 AVDD AVDD sky130_fd_pr__pfet_01v8_hvt ad=0.145 pd=1.29 as=0.29 ps=2.58 w=1 l=1
X217 dda_0.VCMFB dda_0.VCMFB AVDD AVDD sky130_fd_pr__pfet_01v8_hvt ad=0.145 pd=1.29 as=0.145 ps=1.29 w=1 l=1
X218 VO1 VB4 dda_0.VD5 AVDD sky130_fd_pr__pfet_01v8_hvt ad=0.145 pd=1.29 as=0.145 ps=1.29 w=1 l=1
X219 AVDD AVDD AVDD AVDD sky130_fd_pr__pfet_01v8_hvt ad=0.145 pd=1.29 as=0 ps=0 w=1 l=1
X220 AVDD AVDD AVDD AVDD sky130_fd_pr__pfet_01v8_hvt ad=0.145 pd=1.29 as=0 ps=0 w=1 l=1
X221 dda_0.VIT_P1 VI_1B dda_0.SUM_N AVDD sky130_fd_pr__pfet_01v8_hvt ad=0.145 pd=1.29 as=0.145 ps=1.29 w=1 l=1
X222 dda_0.VD6 VB4 VO2 AVDD sky130_fd_pr__pfet_01v8_hvt ad=0.145 pd=1.29 as=0.29 ps=2.58 w=1 l=1
X223 AVDD AVDD AVDD AVDD sky130_fd_pr__pfet_01v8_hvt ad=0.29 pd=2.58 as=0 ps=0 w=1 l=1
X224 dda_0.VD5 dda_0.VCMFB AVDD AVDD sky130_fd_pr__pfet_01v8_hvt ad=0.145 pd=1.29 as=0.29 ps=2.58 w=1 l=1
X225 AVDD dda_0.VCMFB dda_0.VCMFB AVDD sky130_fd_pr__pfet_01v8_hvt ad=0.29 pd=2.58 as=0.145 ps=1.29 w=1 l=1
X226 AVDD dda_0.VD1 dda_0.VD1 AVDD sky130_fd_pr__pfet_01v8_hvt ad=0.29 pd=2.58 as=0.145 ps=1.29 w=1 l=1
X227 dda_0.SUM_N VI_1B dda_0.VIT_P1 AVDD sky130_fd_pr__pfet_01v8_hvt ad=0.145 pd=1.29 as=0.29 ps=2.58 w=1 l=1
X228 AVDD AVDD AVDD AVDD sky130_fd_pr__pfet_01v8_hvt ad=0.29 pd=2.58 as=0 ps=0 w=1 l=1
X229 AVDD AVDD AVDD AVDD sky130_fd_pr__pfet_01v8_hvt ad=0.29 pd=2.58 as=0 ps=0 w=1 l=1
X230 AVSS AVSS AVSS AVSS sky130_fd_pr__nfet_01v8 ad=0.29 pd=2.58 as=0 ps=0 w=1 l=1
X231 AVDD AVDD AVDD AVDD sky130_fd_pr__pfet_01v8_hvt ad=0.29 pd=2.58 as=0 ps=0 w=1 l=1
X232 AVSS AVSS AVSS AVSS sky130_fd_pr__nfet_01v8 ad=0.29 pd=2.58 as=0 ps=0 w=1 l=1
X233 dda_0.VD5 dda_0.VCMFB AVDD AVDD sky130_fd_pr__pfet_01v8_hvt ad=0.145 pd=1.29 as=0.29 ps=2.58 w=1 l=1
X234 AVDD dda_0.VCMFB dda_0.VCMFB AVDD sky130_fd_pr__pfet_01v8_hvt ad=0.145 pd=1.29 as=0.29 ps=2.58 w=1 l=1
X235 dda_0.SUM_N VI_2A dda_0.VIT_P2 AVDD sky130_fd_pr__pfet_01v8_hvt ad=0.145 pd=1.29 as=0.29 ps=2.58 w=1 l=1
X236 AVDD AVDD AVDD AVDD sky130_fd_pr__pfet_01v8_hvt ad=0.29 pd=2.58 as=0 ps=0 w=1 l=1
X237 AVDD AVDD AVDD AVDD sky130_fd_pr__pfet_01v8_hvt ad=0.29 pd=2.58 as=0 ps=0 w=1 l=1
X238 AVDD dda_0.VD1 dda_0.VD1 AVDD sky130_fd_pr__pfet_01v8_hvt ad=0.29 pd=2.58 as=0.145 ps=1.29 w=1 l=1
X239 dda_0.VIT_P2 VB1 AVDD AVDD sky130_fd_pr__pfet_01v8_hvt ad=0.145 pd=1.29 as=0.29 ps=2.58 w=1 l=1
X240 dda_0.SUM_P VI_2B dda_0.VIT_P2 AVDD sky130_fd_pr__pfet_01v8_hvt ad=0.145 pd=1.29 as=0.145 ps=1.29 w=1 l=1
X241 AVDD dda_0.VCMFB dda_0.VD6 AVDD sky130_fd_pr__pfet_01v8_hvt ad=0.29 pd=2.58 as=0.145 ps=1.29 w=1 l=1
X242 a_12538_n14897# VB1 VB2 AVDD sky130_fd_pr__pfet_01v8_hvt ad=0.145 pd=1.29 as=0.145 ps=1.29 w=1 l=1
X243 AVDD AVDD AVDD AVDD sky130_fd_pr__pfet_01v8_hvt ad=0.29 pd=2.58 as=0 ps=0 w=1 l=1
X244 AVDD AVDD AVDD AVDD sky130_fd_pr__pfet_01v8_hvt ad=0.145 pd=1.29 as=0 ps=0 w=1 l=1
X245 AVDD AVDD AVDD AVDD sky130_fd_pr__pfet_01v8_hvt ad=0.145 pd=1.29 as=0 ps=0 w=1 l=1
X246 AVDD AVDD AVDD AVDD sky130_fd_pr__pfet_01v8_hvt ad=0.145 pd=1.29 as=0 ps=0 w=1 l=1
X247 AVDD AVDD AVDD AVDD sky130_fd_pr__pfet_01v8_hvt ad=0.145 pd=1.29 as=0 ps=0 w=1 l=1
X248 VO2 VB3 dda_0.SUM_N AVSS sky130_fd_pr__nfet_01v8 ad=0.145 pd=1.29 as=0.29 ps=2.58 w=1 l=1
X249 AVDD AVDD AVDD AVDD sky130_fd_pr__pfet_01v8_hvt ad=0.29 pd=2.58 as=0 ps=0 w=1 l=1
X250 AVSS AVSS AVSS AVSS sky130_fd_pr__nfet_01v8 ad=0.29 pd=2.58 as=0 ps=0 w=1 l=1
X251 a_18622_n16388# VB3 a_18364_n16388# AVSS sky130_fd_pr__nfet_01v8 ad=0.145 pd=1.29 as=0.145 ps=1.29 w=1 l=1
X252 AVDD AVDD AVDD AVDD sky130_fd_pr__pfet_01v8_hvt ad=0.145 pd=1.29 as=0 ps=0 w=1 l=1
X253 AVDD AVDD AVDD AVDD sky130_fd_pr__pfet_01v8_hvt ad=0.145 pd=1.29 as=0 ps=0 w=1 l=1
X254 dda_0.VIT_P1 VI_1B dda_0.SUM_N AVDD sky130_fd_pr__pfet_01v8_hvt ad=0.145 pd=1.29 as=0.145 ps=1.29 w=1 l=1
X255 dda_0.SUM_P VI_1A dda_0.VIT_P1 AVDD sky130_fd_pr__pfet_01v8_hvt ad=0.145 pd=1.29 as=0.145 ps=1.29 w=1 l=1
X256 AVDD AVDD AVDD AVDD sky130_fd_pr__pfet_01v8_hvt ad=0.29 pd=2.58 as=0 ps=0 w=1 l=1
X257 AVDD dda_0.VD2 dda_0.VD2 AVDD sky130_fd_pr__pfet_01v8_hvt ad=0.29 pd=2.58 as=0.145 ps=1.29 w=1 l=1
X258 dda_0.VD2 dda_0.VD2 AVDD AVDD sky130_fd_pr__pfet_01v8_hvt ad=0.145 pd=1.29 as=0.145 ps=1.29 w=1 l=1
X259 AVDD AVDD AVDD AVDD sky130_fd_pr__pfet_01v8_hvt ad=0.145 pd=1.29 as=0 ps=0 w=1 l=1
X260 AVDD AVDD AVDD AVDD sky130_fd_pr__pfet_01v8_hvt ad=0.145 pd=1.29 as=0 ps=0 w=1 l=1
X261 AVDD AVDD AVDD AVDD sky130_fd_pr__pfet_01v8_hvt ad=0.145 pd=1.29 as=0 ps=0 w=1 l=1
X262 dda_0.VIT_P1 VB1 AVDD AVDD sky130_fd_pr__pfet_01v8_hvt ad=0.145 pd=1.29 as=0.145 ps=1.29 w=1 l=1
X263 AVDD AVDD AVDD AVDD sky130_fd_pr__pfet_01v8_hvt ad=0.145 pd=1.29 as=0 ps=0 w=1 l=1
X264 dda_0.VD2 dda_0.VD2 AVDD AVDD sky130_fd_pr__pfet_01v8_hvt ad=0.145 pd=1.29 as=0.145 ps=1.29 w=1 l=1
X265 AVDD dda_0.VD1 dda_0.VD1 AVDD sky130_fd_pr__pfet_01v8_hvt ad=0.145 pd=1.29 as=0.145 ps=1.29 w=1 l=1
X266 AVDD VB1 dda_0.VIT_P1 AVDD sky130_fd_pr__pfet_01v8_hvt ad=0.29 pd=2.58 as=0.145 ps=1.29 w=1 l=1
X267 dda_0.VD6 dda_0.VCMFB AVDD AVDD sky130_fd_pr__pfet_01v8_hvt ad=0.145 pd=1.29 as=0.145 ps=1.29 w=1 l=1
X268 AVDD AVDD AVDD AVDD sky130_fd_pr__pfet_01v8_hvt ad=0.29 pd=2.58 as=0 ps=0 w=1 l=1
X269 AVDD AVDD AVDD AVDD sky130_fd_pr__pfet_01v8_hvt ad=0.29 pd=2.58 as=0 ps=0 w=1 l=1
X270 AVDD dda_0.VD1 dda_0.VD1 AVDD sky130_fd_pr__pfet_01v8_hvt ad=0.145 pd=1.29 as=0.145 ps=1.29 w=1 l=1
X271 AVDD AVDD AVDD AVDD sky130_fd_pr__pfet_01v8_hvt ad=0.145 pd=1.29 as=0 ps=0 w=1 l=1
X272 AVDD VB1 dda_0.VIT_P2 AVDD sky130_fd_pr__pfet_01v8_hvt ad=0.29 pd=2.58 as=0.145 ps=1.29 w=1 l=1
X273 AVDD VB1 a_13764_n10592# AVDD sky130_fd_pr__pfet_01v8_hvt ad=0.29 pd=2.58 as=0.145 ps=1.29 w=1 l=1
X274 AVSS AVSS AVSS AVSS sky130_fd_pr__nfet_01v8 ad=0.29 pd=2.58 as=0 ps=0 w=1 l=1
X275 AVDD AVDD AVDD AVDD sky130_fd_pr__pfet_01v8_hvt ad=0.29 pd=2.58 as=0 ps=0 w=1 l=1
X276 AVDD AVDD AVDD AVDD sky130_fd_pr__pfet_01v8_hvt ad=0.145 pd=1.29 as=0 ps=0 w=1 l=1
X277 AVDD AVDD AVDD AVDD sky130_fd_pr__pfet_01v8_hvt ad=0.29 pd=2.58 as=0 ps=0 w=1 l=1
X278 AVDD VB1 a_11506_n15784# AVDD sky130_fd_pr__pfet_01v8_hvt ad=0.145 pd=1.29 as=0.145 ps=1.29 w=1 l=1
X279 AVDD dda_0.VD2 dda_0.VD2 AVDD sky130_fd_pr__pfet_01v8_hvt ad=0.29 pd=2.58 as=0.145 ps=1.29 w=1 l=1
X280 AVDD AVDD AVDD AVDD sky130_fd_pr__pfet_01v8_hvt ad=0.145 pd=1.29 as=0 ps=0 w=1 l=1
X281 AVDD dda_0.VCMFB dda_0.VD5 AVDD sky130_fd_pr__pfet_01v8_hvt ad=0.29 pd=2.58 as=0.145 ps=1.29 w=1 l=1
X282 AVDD AVDD AVDD AVDD sky130_fd_pr__pfet_01v8_hvt ad=0.145 pd=1.29 as=0 ps=0 w=1 l=1
X283 AVDD AVDD AVDD AVDD sky130_fd_pr__pfet_01v8_hvt ad=0.29 pd=2.58 as=0 ps=0 w=1 l=1
X284 dda_0.VCMFB dda_0.VCMFB AVDD AVDD sky130_fd_pr__pfet_01v8_hvt ad=0.145 pd=1.29 as=0.29 ps=2.58 w=1 l=1
X285 AVSS AVSS AVSS AVSS sky130_fd_pr__nfet_01v8 ad=0.145 pd=1.29 as=0 ps=0 w=1 l=1
X286 AVDD dda_0.VCMFB dda_0.VD5 AVDD sky130_fd_pr__pfet_01v8_hvt ad=0.29 pd=2.58 as=0.145 ps=1.29 w=1 l=1
X287 dda_0.VIT_P2 VI_2A dda_0.SUM_N AVDD sky130_fd_pr__pfet_01v8_hvt ad=0.29 pd=2.58 as=0.145 ps=1.29 w=1 l=1
X288 dda_0.SUM_P VI_1A dda_0.VIT_P1 AVDD sky130_fd_pr__pfet_01v8_hvt ad=0.145 pd=1.29 as=0.145 ps=1.29 w=1 l=1
X289 AVDD AVDD AVDD AVDD sky130_fd_pr__pfet_01v8_hvt ad=0.145 pd=1.29 as=0 ps=0 w=1 l=1
X290 AVDD AVDD AVDD AVDD sky130_fd_pr__pfet_01v8_hvt ad=0.29 pd=2.58 as=0 ps=0 w=1 l=1
X291 dda_0.VIT_P2 VB1 AVDD AVDD sky130_fd_pr__pfet_01v8_hvt ad=0.145 pd=1.29 as=0.29 ps=2.58 w=1 l=1
X292 dda_0.VIT_P1 VI_1A dda_0.SUM_P AVDD sky130_fd_pr__pfet_01v8_hvt ad=0.29 pd=2.58 as=0.145 ps=1.29 w=1 l=1
X293 AVDD dda_0.VD1 dda_0.VD1 AVDD sky130_fd_pr__pfet_01v8_hvt ad=0.145 pd=1.29 as=0.29 ps=2.58 w=1 l=1
X294 AVDD dda_0.VCMFB dda_0.VCMFB AVDD sky130_fd_pr__pfet_01v8_hvt ad=0.145 pd=1.29 as=0.145 ps=1.29 w=1 l=1
X295 AVDD VB1 a_13764_n12307# AVDD sky130_fd_pr__pfet_01v8_hvt ad=0.29 pd=2.58 as=0.145 ps=1.29 w=1 l=1
X296 AVSS VB2 dda_0.SUM_P AVSS sky130_fd_pr__nfet_01v8 ad=0.29 pd=2.58 as=0.145 ps=1.29 w=1 l=1
X297 dda_0.VCMFB dda_0.VCMFB AVDD AVDD sky130_fd_pr__pfet_01v8_hvt ad=0.29 pd=2.58 as=0.145 ps=1.29 w=1 l=1
X298 VB1 VB1 a_13248_n11213# AVDD sky130_fd_pr__pfet_01v8_hvt ad=0.145 pd=1.29 as=0.145 ps=1.29 w=1 l=1
X299 AVSS VB2 dda_0.SUM_P AVSS sky130_fd_pr__nfet_01v8 ad=0.29 pd=2.58 as=0.145 ps=1.29 w=1 l=1
X300 VO1 VB4 dda_0.VD5 AVDD sky130_fd_pr__pfet_01v8_hvt ad=0.145 pd=1.29 as=0.145 ps=1.29 w=1 l=1
X301 AVDD AVDD AVDD AVDD sky130_fd_pr__pfet_01v8_hvt ad=0.29 pd=2.58 as=0 ps=0 w=1 l=1
X302 dda_0.VIT_N1 VO1 dda_0.VD1 AVSS sky130_fd_pr__nfet_01v8 ad=0.145 pd=1.29 as=0.29 ps=2.58 w=1 l=1
X303 AVSS AVSS AVSS AVSS sky130_fd_pr__nfet_01v8 ad=0.29 pd=2.58 as=0 ps=0 w=1 l=1
X304 dda_0.VIT_P2 VB1 AVDD AVDD sky130_fd_pr__pfet_01v8_hvt ad=0.145 pd=1.29 as=0.145 ps=1.29 w=1 l=1
X305 AVDD AVDD AVDD AVDD sky130_fd_pr__pfet_01v8_hvt ad=0.29 pd=2.58 as=0 ps=0 w=1 l=1
X306 AVDD AVDD AVDD AVDD sky130_fd_pr__pfet_01v8_hvt ad=0.145 pd=1.29 as=0 ps=0 w=1 l=1
X307 AVDD VB1 dda_0.VIT_P1 AVDD sky130_fd_pr__pfet_01v8_hvt ad=0.29 pd=2.58 as=0.145 ps=1.29 w=1 l=1
X308 AVDD AVDD AVDD AVDD sky130_fd_pr__pfet_01v8_hvt ad=0.29 pd=2.58 as=0 ps=0 w=1 l=1
X309 AVDD AVDD AVDD AVDD sky130_fd_pr__pfet_01v8_hvt ad=0.29 pd=2.58 as=0 ps=0 w=1 l=1