* NGSPICE file created from bias.ext - technology: sky130A

.subckt bias IREF AVDD AVSS VB3 VB4 VB2 VB1
X0 a_9838_205# VB2 VB4 AVSS sky130_fd_pr__nfet_01v8 ad=0.145 pd=1.29 as=0.29 ps=2.58 w=1 l=1
X1 AVSS AVSS AVSS AVSS sky130_fd_pr__nfet_01v8 ad=0.29 pd=2.58 as=0 ps=0 w=1 l=1
X2 a_8132_2488# IREF VB1 AVSS sky130_fd_pr__nfet_01v8 ad=0.145 pd=1.29 as=0.29 ps=2.58 w=1 l=1
X3 a_4970_1009# VB1 VB1 AVDD sky130_fd_pr__pfet_01v8_hvt ad=0.145 pd=1.29 as=0.145 ps=1.29 w=1 l=1
X4 a_9838_2488# IREF VB1 AVSS sky130_fd_pr__nfet_01v8 ad=0.145 pd=1.29 as=0.29 ps=2.58 w=1 l=1
X5 a_10519_5228# VB4 AVDD AVDD sky130_fd_pr__pfet_01v8_hvt ad=0.145 pd=1.29 as=0.29 ps=2.58 w=1 l=1
X6 AVSS AVSS AVSS AVSS sky130_fd_pr__nfet_01v8 ad=0.29 pd=2.58 as=0 ps=0 w=1 l=1
X7 AVSS AVSS AVSS AVSS sky130_fd_pr__nfet_01v8 ad=0.29 pd=2.58 as=0 ps=0 w=1 l=1
X8 AVSS AVSS AVSS AVSS sky130_fd_pr__nfet_01v8 ad=0.145 pd=1.29 as=0 ps=0 w=1 l=1
X9 a_8132_1583# IREF IREF AVSS sky130_fd_pr__nfet_01v8 ad=0.145 pd=1.29 as=0.29 ps=2.58 w=1 l=1
X10 a_2712_n77# VB1 VB2 AVDD sky130_fd_pr__pfet_01v8_hvt ad=0.145 pd=1.29 as=0.29 ps=2.58 w=1 l=1
X11 AVDD VB1 a_3744_4980# AVDD sky130_fd_pr__pfet_01v8_hvt ad=0.29 pd=2.58 as=0.145 ps=1.29 w=1 l=1
X12 a_9838_1583# IREF IREF AVSS sky130_fd_pr__nfet_01v8 ad=0.145 pd=1.29 as=0.29 ps=2.58 w=1 l=1
X13 VB4 VB4 a_10777_6298# AVDD sky130_fd_pr__pfet_01v8_hvt ad=0.29 pd=2.58 as=0.145 ps=1.29 w=1 l=1
X14 a_2712_4093# VB1 VB2 AVDD sky130_fd_pr__pfet_01v8_hvt ad=0.145 pd=1.29 as=0.29 ps=2.58 w=1 l=1
X15 AVDD AVDD AVDD AVDD sky130_fd_pr__pfet_01v8_hvt ad=0.145 pd=1.29 as=0 ps=0 w=1 l=1
X16 a_2002_6484# VB1 VB2 AVDD sky130_fd_pr__pfet_01v8_hvt ad=0.145 pd=1.29 as=0.145 ps=1.29 w=1 l=1
X17 AVDD VB1 a_3744_2103# AVDD sky130_fd_pr__pfet_01v8_hvt ad=0.29 pd=2.58 as=0.145 ps=1.29 w=1 l=1
X18 AVDD VB1 a_2002_5597# AVDD sky130_fd_pr__pfet_01v8_hvt ad=0.29 pd=2.58 as=0.145 ps=1.29 w=1 l=1
X19 AVDD VB1 a_2712_5597# AVDD sky130_fd_pr__pfet_01v8_hvt ad=0.145 pd=1.29 as=0.145 ps=1.29 w=1 l=1
X20 a_4970_n77# VB1 VB3 AVDD sky130_fd_pr__pfet_01v8_hvt ad=0.145 pd=1.29 as=0.145 ps=1.29 w=1 l=1
X21 a_3744_4980# VB1 VB3 AVDD sky130_fd_pr__pfet_01v8_hvt ad=0.145 pd=1.29 as=0.145 ps=1.29 w=1 l=1
X22 AVDD VB1 a_4970_1009# AVDD sky130_fd_pr__pfet_01v8_hvt ad=0.29 pd=2.58 as=0.145 ps=1.29 w=1 l=1
X23 a_10777_6298# VB4 a_10519_6298# AVDD sky130_fd_pr__pfet_01v8_hvt ad=0.145 pd=1.29 as=0.145 ps=1.29 w=1 l=1
X24 a_4970_n2468# VB1 VB2 AVDD sky130_fd_pr__pfet_01v8_hvt ad=0.145 pd=1.29 as=0.145 ps=1.29 w=1 l=1
X25 AVDD VB1 a_4970_n3085# AVDD sky130_fd_pr__pfet_01v8_hvt ad=0.29 pd=2.58 as=0.145 ps=1.29 w=1 l=1
X26 VB2 VB1 a_1486_6484# AVDD sky130_fd_pr__pfet_01v8_hvt ad=0.145 pd=1.29 as=0.145 ps=1.29 w=1 l=1
X27 a_3744_2103# VB1 VB1 AVDD sky130_fd_pr__pfet_01v8_hvt ad=0.145 pd=1.29 as=0.145 ps=1.29 w=1 l=1
X28 VB2 VB1 a_3228_n3085# AVDD sky130_fd_pr__pfet_01v8_hvt ad=0.145 pd=1.29 as=0.145 ps=1.29 w=1 l=1
X29 AVDD VB1 a_2712_1638# AVDD sky130_fd_pr__pfet_01v8_hvt ad=0.145 pd=1.29 as=0.145 ps=1.29 w=1 l=1
X30 AVDD VB1 a_2002_1638# AVDD sky130_fd_pr__pfet_01v8_hvt ad=0.29 pd=2.58 as=0.145 ps=1.29 w=1 l=1
X31 AVSS IREF a_11544_2488# AVSS sky130_fd_pr__nfet_01v8 ad=0.29 pd=2.58 as=0.145 ps=1.29 w=1 l=1
X32 VB3 VB1 a_3228_4980# AVDD sky130_fd_pr__pfet_01v8_hvt ad=0.145 pd=1.29 as=0.145 ps=1.29 w=1 l=1
X33 AVSS AVSS AVSS AVSS sky130_fd_pr__nfet_01v8 ad=0.145 pd=1.29 as=0 ps=0 w=1 l=1
X34 AVDD AVDD AVDD AVDD sky130_fd_pr__pfet_01v8_hvt ad=0.145 pd=1.29 as=0 ps=0 w=1 l=1
X35 a_1486_6484# VB1 AVDD AVDD sky130_fd_pr__pfet_01v8_hvt ad=0.145 pd=1.29 as=0.29 ps=2.58 w=1 l=1
X36 VB1 VB1 a_3228_2103# AVDD sky130_fd_pr__pfet_01v8_hvt ad=0.145 pd=1.29 as=0.145 ps=1.29 w=1 l=1
X37 AVSS AVSS AVSS AVSS sky130_fd_pr__nfet_01v8 ad=0.145 pd=1.29 as=0 ps=0 w=1 l=1
X38 a_11544_2488# IREF VB1 AVSS sky130_fd_pr__nfet_01v8 ad=0.145 pd=1.29 as=0.29 ps=2.58 w=1 l=1
X39 a_1486_n77# VB1 AVDD AVDD sky130_fd_pr__pfet_01v8_hvt ad=0.145 pd=1.29 as=0.29 ps=2.58 w=1 l=1
X40 a_4970_4093# VB1 VB3 AVDD sky130_fd_pr__pfet_01v8_hvt ad=0.145 pd=1.29 as=0.145 ps=1.29 w=1 l=1
X41 AVDD AVDD AVDD AVDD sky130_fd_pr__pfet_01v8_hvt ad=0.145 pd=1.29 as=0 ps=0 w=1 l=1
X42 AVSS AVSS AVSS AVSS sky130_fd_pr__nfet_01v8 ad=0.145 pd=1.29 as=0 ps=0 w=1 l=1
X43 AVDD VB1 a_3744_n2468# AVDD sky130_fd_pr__pfet_01v8_hvt ad=0.29 pd=2.58 as=0.145 ps=1.29 w=1 l=1
X44 AVDD AVDD AVDD AVDD sky130_fd_pr__pfet_01v8_hvt ad=0.29 pd=2.58 as=0 ps=0 w=1 l=1
X45 a_2002_n964# VB1 VB2 AVDD sky130_fd_pr__pfet_01v8_hvt ad=0.145 pd=1.29 as=0.145 ps=1.29 w=1 l=1
X46 a_3228_n77# VB1 AVDD AVDD sky130_fd_pr__pfet_01v8_hvt ad=0.145 pd=1.29 as=0.145 ps=1.29 w=1 l=1
X47 AVSS AVSS AVSS AVSS sky130_fd_pr__nfet_01v8 ad=0.29 pd=2.58 as=0 ps=0 w=1 l=1
X48 AVSS IREF a_11544_1583# AVSS sky130_fd_pr__nfet_01v8 ad=0.29 pd=2.58 as=0.145 ps=1.29 w=1 l=1
X49 VB2 VB1 a_4454_n2468# AVDD sky130_fd_pr__pfet_01v8_hvt ad=0.145 pd=1.29 as=0.145 ps=1.29 w=1 l=1
X50 a_2002_2724# VB1 VB1 AVDD sky130_fd_pr__pfet_01v8_hvt ad=0.145 pd=1.29 as=0.145 ps=1.29 w=1 l=1
X51 AVDD VB1 a_2712_n2468# AVDD sky130_fd_pr__pfet_01v8_hvt ad=0.145 pd=1.29 as=0.145 ps=1.29 w=1 l=1
X52 a_3228_n3085# VB1 AVDD AVDD sky130_fd_pr__pfet_01v8_hvt ad=0.145 pd=1.29 as=0.145 ps=1.29 w=1 l=1
X53 AVDD AVDD AVDD AVDD sky130_fd_pr__pfet_01v8_hvt ad=0.145 pd=1.29 as=0 ps=0 w=1 l=1
X54 AVDD AVDD AVDD AVDD sky130_fd_pr__pfet_01v8_hvt ad=0.29 pd=2.58 as=0 ps=0 w=1 l=1
X55 a_3228_5597# VB1 AVDD AVDD sky130_fd_pr__pfet_01v8_hvt ad=0.145 pd=1.29 as=0.145 ps=1.29 w=1 l=1
X56 a_1486_n3085# VB1 AVDD AVDD sky130_fd_pr__pfet_01v8_hvt ad=0.145 pd=1.29 as=0.29 ps=2.58 w=1 l=1
X57 AVDD AVDD AVDD AVDD sky130_fd_pr__pfet_01v8_hvt ad=0.145 pd=1.29 as=0 ps=0 w=1 l=1
X58 VB2 VB1 a_1486_n964# AVDD sky130_fd_pr__pfet_01v8_hvt ad=0.145 pd=1.29 as=0.145 ps=1.29 w=1 l=1
X59 AVDD AVDD AVDD AVDD sky130_fd_pr__pfet_01v8_hvt ad=0.145 pd=1.29 as=0 ps=0 w=1 l=1
X60 a_2712_3472# VB1 VB3 AVDD sky130_fd_pr__pfet_01v8_hvt ad=0.145 pd=1.29 as=0.29 ps=2.58 w=1 l=1
X61 a_8985_205# IREF AVSS AVSS sky130_fd_pr__nfet_01v8 ad=0.145 pd=1.29 as=0.29 ps=2.58 w=1 l=1
X62 a_11544_1583# IREF IREF AVSS sky130_fd_pr__nfet_01v8 ad=0.145 pd=1.29 as=0.29 ps=2.58 w=1 l=1
X63 a_2712_542# VB1 VB1 AVDD sky130_fd_pr__pfet_01v8_hvt ad=0.145 pd=1.29 as=0.29 ps=2.58 w=1 l=1
X64 VB1 VB1 a_1486_2724# AVDD sky130_fd_pr__pfet_01v8_hvt ad=0.145 pd=1.29 as=0.145 ps=1.29 w=1 l=1
X65 AVDD AVDD AVDD AVDD sky130_fd_pr__pfet_01v8_hvt ad=0.145 pd=1.29 as=0 ps=0 w=1 l=1
X66 a_3228_1638# VB1 AVDD AVDD sky130_fd_pr__pfet_01v8_hvt ad=0.145 pd=1.29 as=0.145 ps=1.29 w=1 l=1
X67 a_8985_2488# VB2 AVSS AVSS sky130_fd_pr__nfet_01v8 ad=0.145 pd=1.29 as=0.29 ps=2.58 w=1 l=1
X68 AVSS AVSS AVSS AVSS sky130_fd_pr__nfet_01v8 ad=0.145 pd=1.29 as=0 ps=0 w=1 l=1
X69 a_1486_n964# VB1 AVDD AVDD sky130_fd_pr__pfet_01v8_hvt ad=0.145 pd=1.29 as=0.29 ps=2.58 w=1 l=1
X70 AVDD AVDD AVDD AVDD sky130_fd_pr__pfet_01v8_hvt ad=0.29 pd=2.58 as=0 ps=0 w=1 l=1
X71 a_2002_n2468# VB1 VB2 AVDD sky130_fd_pr__pfet_01v8_hvt ad=0.145 pd=1.29 as=0.145 ps=1.29 w=1 l=1
X72 AVSS AVSS AVSS AVSS sky130_fd_pr__nfet_01v8 ad=0.29 pd=2.58 as=0 ps=0 w=1 l=1
X73 AVDD VB1 a_3744_n77# AVDD sky130_fd_pr__pfet_01v8_hvt ad=0.29 pd=2.58 as=0.145 ps=1.29 w=1 l=1
X74 a_1486_2724# VB1 AVDD AVDD sky130_fd_pr__pfet_01v8_hvt ad=0.145 pd=1.29 as=0.29 ps=2.58 w=1 l=1
X75 a_4970_542# VB1 VB1 AVDD sky130_fd_pr__pfet_01v8_hvt ad=0.145 pd=1.29 as=0.145 ps=1.29 w=1 l=1
X76 a_2712_n2468# VB1 VB3 AVDD sky130_fd_pr__pfet_01v8_hvt ad=0.145 pd=1.29 as=0.29 ps=2.58 w=1 l=1
X77 AVDD VB1 a_4970_4093# AVDD sky130_fd_pr__pfet_01v8_hvt ad=0.29 pd=2.58 as=0.145 ps=1.29 w=1 l=1
X78 AVDD AVDD AVDD AVDD sky130_fd_pr__pfet_01v8_hvt ad=0.145 pd=1.29 as=0 ps=0 w=1 l=1
X79 AVSS AVSS AVSS AVSS sky130_fd_pr__nfet_01v8 ad=0.29 pd=2.58 as=0 ps=0 w=1 l=1
X80 AVDD AVDD AVDD AVDD sky130_fd_pr__pfet_01v8_hvt ad=0.29 pd=2.58 as=0 ps=0 w=1 l=1
X81 AVDD AVDD AVDD AVDD sky130_fd_pr__pfet_01v8_hvt ad=0.145 pd=1.29 as=0 ps=0 w=1 l=1
X82 a_8985_1583# VB2 AVSS AVSS sky130_fd_pr__nfet_01v8 ad=0.145 pd=1.29 as=0.29 ps=2.58 w=1 l=1
X83 AVDD AVDD AVDD AVDD sky130_fd_pr__pfet_01v8_hvt ad=0.29 pd=2.58 as=0 ps=0 w=1 l=1
X84 AVDD AVDD AVDD AVDD sky130_fd_pr__pfet_01v8_hvt ad=0.145 pd=1.29 as=0 ps=0 w=1 l=1
X85 AVDD AVDD AVDD AVDD sky130_fd_pr__pfet_01v8_hvt ad=0.145 pd=1.29 as=0 ps=0 w=1 l=1
X86 AVSS AVSS AVSS AVSS sky130_fd_pr__nfet_01v8 ad=0.145 pd=1.29 as=0 ps=0 w=1 l=1
X87 AVDD AVDD AVDD AVDD sky130_fd_pr__pfet_01v8_hvt ad=0.145 pd=1.29 as=0 ps=0 w=1 l=1
X88 a_4970_3472# VB1 VB2 AVDD sky130_fd_pr__pfet_01v8_hvt ad=0.145 pd=1.29 as=0.145 ps=1.29 w=1 l=1
X89 AVDD AVDD AVDD AVDD sky130_fd_pr__pfet_01v8_hvt ad=0.145 pd=1.29 as=0 ps=0 w=1 l=1
X90 AVDD AVDD AVDD AVDD sky130_fd_pr__pfet_01v8_hvt ad=0.145 pd=1.29 as=0 ps=0 w=1 l=1
X91 a_10519_6762# VB4 AVDD AVDD sky130_fd_pr__pfet_01v8_hvt ad=0.145 pd=1.29 as=0.29 ps=2.58 w=1 l=1
X92 AVSS VB2 a_11544_205# AVSS sky130_fd_pr__nfet_01v8 ad=0.29 pd=2.58 as=0.145 ps=1.29 w=1 l=1
X93 AVDD AVDD AVDD AVDD sky130_fd_pr__pfet_01v8_hvt ad=0.29 pd=2.58 as=0 ps=0 w=1 l=1
X94 IREF IREF a_8985_1111# AVSS sky130_fd_pr__nfet_01v8 ad=0.29 pd=2.58 as=0.145 ps=1.29 w=1 l=1
X95 AVDD VB1 a_2712_1009# AVDD sky130_fd_pr__pfet_01v8_hvt ad=0.145 pd=1.29 as=0.145 ps=1.29 w=1 l=1
X96 AVDD VB1 a_2002_1009# AVDD sky130_fd_pr__pfet_01v8_hvt ad=0.29 pd=2.58 as=0.145 ps=1.29 w=1 l=1
X97 AVDD AVDD AVDD AVDD sky130_fd_pr__pfet_01v8_hvt ad=0.29 pd=2.58 as=0 ps=0 w=1 l=1
X98 AVDD AVDD AVDD AVDD sky130_fd_pr__pfet_01v8_hvt ad=0.29 pd=2.58 as=0 ps=0 w=1 l=1
X99 AVDD AVDD AVDD AVDD sky130_fd_pr__pfet_01v8_hvt ad=0.29 pd=2.58 as=0 ps=0 w=1 l=1
X100 AVSS AVSS AVSS AVSS sky130_fd_pr__nfet_01v8 ad=0.29 pd=2.58 as=0 ps=0 w=1 l=1
X101 a_1486_542# VB1 AVDD AVDD sky130_fd_pr__pfet_01v8_hvt ad=0.145 pd=1.29 as=0.29 ps=2.58 w=1 l=1
X102 AVDD AVDD AVDD AVDD sky130_fd_pr__pfet_01v8_hvt ad=0.29 pd=2.58 as=0 ps=0 w=1 l=1
X103 a_3228_542# VB1 AVDD AVDD sky130_fd_pr__pfet_01v8_hvt ad=0.145 pd=1.29 as=0.145 ps=1.29 w=1 l=1
X104 AVDD AVDD AVDD AVDD sky130_fd_pr__pfet_01v8_hvt ad=0.29 pd=2.58 as=0 ps=0 w=1 l=1
X105 VB3 VB3 a_10086_n3072# AVSS sky130_fd_pr__nfet_01v8 ad=0.29 pd=2.58 as=0.145 ps=1.29 w=1 l=1
X106 AVSS AVSS AVSS AVSS sky130_fd_pr__nfet_01v8 ad=0.29 pd=2.58 as=0 ps=0 w=1 l=1
X107 AVSS AVSS AVSS AVSS sky130_fd_pr__nfet_01v8 ad=0.29 pd=2.58 as=0 ps=0 w=1 l=1
X108 VB2 VB1 a_4454_6484# AVDD sky130_fd_pr__pfet_01v8_hvt ad=0.145 pd=1.29 as=0.145 ps=1.29 w=1 l=1
X109 a_10691_2488# VB2 AVSS AVSS sky130_fd_pr__nfet_01v8 ad=0.145 pd=1.29 as=0.29 ps=2.58 w=1 l=1
X110 AVSS AVSS AVSS AVSS sky130_fd_pr__nfet_01v8 ad=0.145 pd=1.29 as=0 ps=0 w=1 l=1
X111 a_2002_4980# VB1 VB2 AVDD sky130_fd_pr__pfet_01v8_hvt ad=0.145 pd=1.29 as=0.145 ps=1.29 w=1 l=1
X112 AVSS AVSS AVSS AVSS sky130_fd_pr__nfet_01v8 ad=0.29 pd=2.58 as=0 ps=0 w=1 l=1
X113 a_4454_6484# VB1 AVDD AVDD sky130_fd_pr__pfet_01v8_hvt ad=0.145 pd=1.29 as=0.29 ps=2.58 w=1 l=1
X114 VB4 VB4 a_10777_5228# AVDD sky130_fd_pr__pfet_01v8_hvt ad=0.29 pd=2.58 as=0.145 ps=1.29 w=1 l=1
X115 AVDD AVDD AVDD AVDD sky130_fd_pr__pfet_01v8_hvt ad=0.145 pd=1.29 as=0 ps=0 w=1 l=1
X116 AVDD VB1 a_4970_3472# AVDD sky130_fd_pr__pfet_01v8_hvt ad=0.29 pd=2.58 as=0.145 ps=1.29 w=1 l=1
X117 AVDD AVDD AVDD AVDD sky130_fd_pr__pfet_01v8_hvt ad=0.29 pd=2.58 as=0 ps=0 w=1 l=1
X118 a_2002_2103# VB1 VB1 AVDD sky130_fd_pr__pfet_01v8_hvt ad=0.145 pd=1.29 as=0.145 ps=1.29 w=1 l=1
X119 AVDD AVDD AVDD AVDD sky130_fd_pr__pfet_01v8_hvt ad=0.29 pd=2.58 as=0 ps=0 w=1 l=1
X120 AVDD VB1 a_4970_n1581# AVDD sky130_fd_pr__pfet_01v8_hvt ad=0.29 pd=2.58 as=0.145 ps=1.29 w=1 l=1
X121 VB2 VB1 a_1486_4980# AVDD sky130_fd_pr__pfet_01v8_hvt ad=0.145 pd=1.29 as=0.145 ps=1.29 w=1 l=1
X122 VB2 VB1 a_3228_n1581# AVDD sky130_fd_pr__pfet_01v8_hvt ad=0.145 pd=1.29 as=0.145 ps=1.29 w=1 l=1
X123 AVSS AVSS AVSS AVSS sky130_fd_pr__nfet_01v8 ad=0.29 pd=2.58 as=0 ps=0 w=1 l=1
X124 AVDD VB1 a_3744_542# AVDD sky130_fd_pr__pfet_01v8_hvt ad=0.29 pd=2.58 as=0.145 ps=1.29 w=1 l=1
X125 a_3228_1009# VB1 AVDD AVDD sky130_fd_pr__pfet_01v8_hvt ad=0.145 pd=1.29 as=0.145 ps=1.29 w=1 l=1
X126 a_10691_1583# VB2 AVSS AVSS sky130_fd_pr__nfet_01v8 ad=0.145 pd=1.29 as=0.29 ps=2.58 w=1 l=1
X127 AVSS IREF a_9838_2488# AVSS sky130_fd_pr__nfet_01v8 ad=0.29 pd=2.58 as=0.145 ps=1.29 w=1 l=1
X128 a_10777_5228# VB4 a_10519_5228# AVDD sky130_fd_pr__pfet_01v8_hvt ad=0.145 pd=1.29 as=0.145 ps=1.29 w=1 l=1
X129 AVSS AVSS AVSS AVSS sky130_fd_pr__nfet_01v8 ad=0.29 pd=2.58 as=0 ps=0 w=1 l=1
X130 VB1 VB1 a_1486_2103# AVDD sky130_fd_pr__pfet_01v8_hvt ad=0.145 pd=1.29 as=0.145 ps=1.29 w=1 l=1
X131 AVDD AVDD AVDD AVDD sky130_fd_pr__pfet_01v8_hvt ad=0.29 pd=2.58 as=0 ps=0 w=1 l=1
X132 VB2 VB1 a_4454_n964# AVDD sky130_fd_pr__pfet_01v8_hvt ad=0.145 pd=1.29 as=0.145 ps=1.29 w=1 l=1
X133 a_1486_4980# VB1 AVDD AVDD sky130_fd_pr__pfet_01v8_hvt ad=0.145 pd=1.29 as=0.29 ps=2.58 w=1 l=1
X134 AVDD AVDD AVDD AVDD sky130_fd_pr__pfet_01v8_hvt ad=0.29 pd=2.58 as=0 ps=0 w=1 l=1
X135 VB1 VB1 a_4454_2724# AVDD sky130_fd_pr__pfet_01v8_hvt ad=0.145 pd=1.29 as=0.145 ps=1.29 w=1 l=1
X136 AVDD AVDD AVDD AVDD sky130_fd_pr__pfet_01v8_hvt ad=0.145 pd=1.29 as=0 ps=0 w=1 l=1
X137 AVSS IREF a_9838_1583# AVSS sky130_fd_pr__nfet_01v8 ad=0.29 pd=2.58 as=0.145 ps=1.29 w=1 l=1
X138 AVDD AVDD AVDD AVDD sky130_fd_pr__pfet_01v8_hvt ad=0.145 pd=1.29 as=0 ps=0 w=1 l=1
X139 a_1486_2103# VB1 AVDD AVDD sky130_fd_pr__pfet_01v8_hvt ad=0.145 pd=1.29 as=0.29 ps=2.58 w=1 l=1
X140 AVDD VB1 a_2712_4093# AVDD sky130_fd_pr__pfet_01v8_hvt ad=0.145 pd=1.29 as=0.145 ps=1.29 w=1 l=1
X141 AVDD VB1 a_2002_4093# AVDD sky130_fd_pr__pfet_01v8_hvt ad=0.29 pd=2.58 as=0.145 ps=1.29 w=1 l=1
X142 a_4454_n964# VB1 AVDD AVDD sky130_fd_pr__pfet_01v8_hvt ad=0.145 pd=1.29 as=0.29 ps=2.58 w=1 l=1
X143 a_3228_n1581# VB1 AVDD AVDD sky130_fd_pr__pfet_01v8_hvt ad=0.145 pd=1.29 as=0.145 ps=1.29 w=1 l=1
X144 a_4454_2724# VB1 AVDD AVDD sky130_fd_pr__pfet_01v8_hvt ad=0.145 pd=1.29 as=0.29 ps=2.58 w=1 l=1
X145 AVDD AVDD AVDD AVDD sky130_fd_pr__pfet_01v8_hvt ad=0.29 pd=2.58 as=0 ps=0 w=1 l=1
X146 a_1486_n1581# VB1 AVDD AVDD sky130_fd_pr__pfet_01v8_hvt ad=0.145 pd=1.29 as=0.29 ps=2.58 w=1 l=1
X147 AVSS AVSS AVSS AVSS sky130_fd_pr__nfet_01v8 ad=0.145 pd=1.29 as=0 ps=0 w=1 l=1
X148 AVDD AVDD AVDD AVDD sky130_fd_pr__pfet_01v8_hvt ad=0.29 pd=2.58 as=0 ps=0 w=1 l=1
X149 AVDD AVDD AVDD AVDD sky130_fd_pr__pfet_01v8_hvt ad=0.145 pd=1.29 as=0 ps=0 w=1 l=1
X150 AVSS VB2 a_8132_1111# AVSS sky130_fd_pr__nfet_01v8 ad=0.29 pd=2.58 as=0.145 ps=1.29 w=1 l=1
X151 AVDD VB1 a_3744_5597# AVDD sky130_fd_pr__pfet_01v8_hvt ad=0.29 pd=2.58 as=0.145 ps=1.29 w=1 l=1
X152 AVSS AVSS AVSS AVSS sky130_fd_pr__nfet_01v8 ad=0.145 pd=1.29 as=0 ps=0 w=1 l=1
X153 a_9570_n3072# VB3 AVSS AVSS sky130_fd_pr__nfet_01v8 ad=0.145 pd=1.29 as=0.29 ps=2.58 w=1 l=1
X154 AVSS AVSS AVSS AVSS sky130_fd_pr__nfet_01v8 ad=0.29 pd=2.58 as=0 ps=0 w=1 l=1
X155 AVDD AVDD AVDD AVDD sky130_fd_pr__pfet_01v8_hvt ad=0.29 pd=2.58 as=0 ps=0 w=1 l=1
X156 AVDD AVDD AVDD AVDD sky130_fd_pr__pfet_01v8_hvt ad=0.145 pd=1.29 as=0 ps=0 w=1 l=1
X157 AVDD AVDD AVDD AVDD sky130_fd_pr__pfet_01v8_hvt ad=0.29 pd=2.58 as=0 ps=0 w=1 l=1
X158 AVDD VB1 a_3744_1638# AVDD sky130_fd_pr__pfet_01v8_hvt ad=0.29 pd=2.58 as=0.145 ps=1.29 w=1 l=1
X159 AVDD AVDD AVDD AVDD sky130_fd_pr__pfet_01v8_hvt ad=0.29 pd=2.58 as=0 ps=0 w=1 l=1
X160 a_3744_5597# VB1 VB2 AVDD sky130_fd_pr__pfet_01v8_hvt ad=0.145 pd=1.29 as=0.145 ps=1.29 w=1 l=1
X161 AVSS AVSS AVSS AVSS sky130_fd_pr__nfet_01v8 ad=0.29 pd=2.58 as=0 ps=0 w=1 l=1
X162 AVDD AVDD AVDD AVDD sky130_fd_pr__pfet_01v8_hvt ad=0.29 pd=2.58 as=0 ps=0 w=1 l=1
X163 a_3228_4093# VB1 AVDD AVDD sky130_fd_pr__pfet_01v8_hvt ad=0.145 pd=1.29 as=0.145 ps=1.29 w=1 l=1
X164 AVSS AVSS AVSS AVSS sky130_fd_pr__nfet_01v8 ad=0.145 pd=1.29 as=0 ps=0 w=1 l=1
X165 a_3744_1638# VB1 VB1 AVDD sky130_fd_pr__pfet_01v8_hvt ad=0.145 pd=1.29 as=0.145 ps=1.29 w=1 l=1
X166 VB2 VB1 a_3228_5597# AVDD sky130_fd_pr__pfet_01v8_hvt ad=0.145 pd=1.29 as=0.145 ps=1.29 w=1 l=1
X167 VB1 IREF a_10691_205# AVSS sky130_fd_pr__nfet_01v8 ad=0.29 pd=2.58 as=0.145 ps=1.29 w=1 l=1
X168 AVDD VB1 a_2712_3472# AVDD sky130_fd_pr__pfet_01v8_hvt ad=0.145 pd=1.29 as=0.145 ps=1.29 w=1 l=1
X169 AVDD VB1 a_2002_3472# AVDD sky130_fd_pr__pfet_01v8_hvt ad=0.29 pd=2.58 as=0.145 ps=1.29 w=1 l=1
X170 AVDD AVDD AVDD AVDD sky130_fd_pr__pfet_01v8_hvt ad=0.29 pd=2.58 as=0 ps=0 w=1 l=1
X171 AVDD AVDD AVDD AVDD sky130_fd_pr__pfet_01v8_hvt ad=0.29 pd=2.58 as=0 ps=0 w=1 l=1
X172 AVDD AVDD AVDD AVDD sky130_fd_pr__pfet_01v8_hvt ad=0.29 pd=2.58 as=0 ps=0 w=1 l=1
X173 VB1 VB1 a_3228_1638# AVDD sky130_fd_pr__pfet_01v8_hvt ad=0.145 pd=1.29 as=0.145 ps=1.29 w=1 l=1
X174 a_3744_n3085# VB1 VB2 AVDD sky130_fd_pr__pfet_01v8_hvt ad=0.145 pd=1.29 as=0.145 ps=1.29 w=1 l=1
X175 a_4454_n3085# VB1 AVDD AVDD sky130_fd_pr__pfet_01v8_hvt ad=0.145 pd=1.29 as=0.29 ps=2.58 w=1 l=1
X176 VB2 VB1 a_4454_4980# AVDD sky130_fd_pr__pfet_01v8_hvt ad=0.145 pd=1.29 as=0.145 ps=1.29 w=1 l=1
X177 a_3744_n77# VB1 VB2 AVDD sky130_fd_pr__pfet_01v8_hvt ad=0.145 pd=1.29 as=0.145 ps=1.29 w=1 l=1
X178 AVDD AVDD AVDD AVDD sky130_fd_pr__pfet_01v8_hvt ad=0.145 pd=1.29 as=0 ps=0 w=1 l=1
X179 VB4 VB4 a_10777_6762# AVDD sky130_fd_pr__pfet_01v8_hvt ad=0.29 pd=2.58 as=0.145 ps=1.29 w=1 l=1
X180 a_2712_6484# VB1 VB3 AVDD sky130_fd_pr__pfet_01v8_hvt ad=0.145 pd=1.29 as=0.29 ps=2.58 w=1 l=1
X181 VB1 VB1 a_4454_2103# AVDD sky130_fd_pr__pfet_01v8_hvt ad=0.145 pd=1.29 as=0.145 ps=1.29 w=1 l=1
X182 a_4454_4980# VB1 AVDD AVDD sky130_fd_pr__pfet_01v8_hvt ad=0.145 pd=1.29 as=0.29 ps=2.58 w=1 l=1
X183 AVDD AVDD AVDD AVDD sky130_fd_pr__pfet_01v8_hvt ad=0.29 pd=2.58 as=0 ps=0 w=1 l=1
X184 AVDD AVDD AVDD AVDD sky130_fd_pr__pfet_01v8_hvt ad=0.29 pd=2.58 as=0 ps=0 w=1 l=1
X185 AVDD AVDD AVDD AVDD sky130_fd_pr__pfet_01v8_hvt ad=0.29 pd=2.58 as=0 ps=0 w=1 l=1
X186 a_10777_6762# VB4 a_10519_6762# AVDD sky130_fd_pr__pfet_01v8_hvt ad=0.145 pd=1.29 as=0.145 ps=1.29 w=1 l=1
X187 a_10519_5531# VB4 AVDD AVDD sky130_fd_pr__pfet_01v8_hvt ad=0.145 pd=1.29 as=0.29 ps=2.58 w=1 l=1
X188 a_11544_205# VB2 VB4 AVSS sky130_fd_pr__nfet_01v8 ad=0.145 pd=1.29 as=0.29 ps=2.58 w=1 l=1
X189 a_4454_2103# VB1 AVDD AVDD sky130_fd_pr__pfet_01v8_hvt ad=0.145 pd=1.29 as=0.29 ps=2.58 w=1 l=1
X190 a_3228_3472# VB1 AVDD AVDD sky130_fd_pr__pfet_01v8_hvt ad=0.145 pd=1.29 as=0.145 ps=1.29 w=1 l=1
X191 VB3 VB1 a_1486_n3085# AVDD sky130_fd_pr__pfet_01v8_hvt ad=0.145 pd=1.29 as=0.145 ps=1.29 w=1 l=1
X192 AVDD AVDD AVDD AVDD sky130_fd_pr__pfet_01v8_hvt ad=0.145 pd=1.29 as=0 ps=0 w=1 l=1
X193 AVDD AVDD AVDD AVDD sky130_fd_pr__pfet_01v8_hvt ad=0.145 pd=1.29 as=0 ps=0 w=1 l=1
X194 AVSS AVSS AVSS AVSS sky130_fd_pr__nfet_01v8 ad=0.145 pd=1.29 as=0 ps=0 w=1 l=1
X195 AVDD AVDD AVDD AVDD sky130_fd_pr__pfet_01v8_hvt ad=0.29 pd=2.58 as=0 ps=0 w=1 l=1
X196 AVDD VB1 a_3744_1009# AVDD sky130_fd_pr__pfet_01v8_hvt ad=0.29 pd=2.58 as=0.145 ps=1.29 w=1 l=1
X197 a_4970_6484# VB1 VB2 AVDD sky130_fd_pr__pfet_01v8_hvt ad=0.145 pd=1.29 as=0.145 ps=1.29 w=1 l=1
X198 AVSS AVSS AVSS AVSS sky130_fd_pr__nfet_01v8 ad=0.145 pd=1.29 as=0 ps=0 w=1 l=1
X199 AVDD AVDD AVDD AVDD sky130_fd_pr__pfet_01v8_hvt ad=0.145 pd=1.29 as=0 ps=0 w=1 l=1
X200 a_2712_n964# VB1 VB3 AVDD sky130_fd_pr__pfet_01v8_hvt ad=0.145 pd=1.29 as=0.29 ps=2.58 w=1 l=1
X201 a_2712_2724# VB1 VB1 AVDD sky130_fd_pr__pfet_01v8_hvt ad=0.145 pd=1.29 as=0.29 ps=2.58 w=1 l=1
X202 AVSS AVSS AVSS AVSS sky130_fd_pr__nfet_01v8 ad=0.29 pd=2.58 as=0 ps=0 w=1 l=1
X203 VB4 VB2 a_8985_2488# AVSS sky130_fd_pr__nfet_01v8 ad=0.29 pd=2.58 as=0.145 ps=1.29 w=1 l=1
X204 a_3744_1009# VB1 VB1 AVDD sky130_fd_pr__pfet_01v8_hvt ad=0.145 pd=1.29 as=0.145 ps=1.29 w=1 l=1
X205 AVSS AVSS AVSS AVSS sky130_fd_pr__nfet_01v8 ad=0.29 pd=2.58 as=0 ps=0 w=1 l=1
X206 AVDD AVDD AVDD AVDD sky130_fd_pr__pfet_01v8_hvt ad=0.145 pd=1.29 as=0 ps=0 w=1 l=1
X207 AVDD AVDD AVDD AVDD sky130_fd_pr__pfet_01v8_hvt ad=0.145 pd=1.29 as=0 ps=0 w=1 l=1
X208 AVSS AVSS AVSS AVSS sky130_fd_pr__nfet_01v8 ad=0.145 pd=1.29 as=0 ps=0 w=1 l=1
X209 a_3744_542# VB1 VB1 AVDD sky130_fd_pr__pfet_01v8_hvt ad=0.145 pd=1.29 as=0.145 ps=1.29 w=1 l=1
X210 VB1 VB1 a_3228_1009# AVDD sky130_fd_pr__pfet_01v8_hvt ad=0.145 pd=1.29 as=0.145 ps=1.29 w=1 l=1
X211 VB2 VB2 a_8985_1583# AVSS sky130_fd_pr__nfet_01v8 ad=0.29 pd=2.58 as=0.145 ps=1.29 w=1 l=1
X212 AVDD AVDD AVDD AVDD sky130_fd_pr__pfet_01v8_hvt ad=0.145 pd=1.29 as=0 ps=0 w=1 l=1
X213 AVSS AVSS AVSS AVSS sky130_fd_pr__nfet_01v8 ad=0.29 pd=2.58 as=0 ps=0 w=1 l=1
X214 AVDD AVDD AVDD AVDD sky130_fd_pr__pfet_01v8_hvt ad=0.145 pd=1.29 as=0 ps=0 w=1 l=1
X215 a_2002_5597# VB1 VB3 AVDD sky130_fd_pr__pfet_01v8_hvt ad=0.145 pd=1.29 as=0.145 ps=1.29 w=1 l=1
X216 a_4970_n964# VB1 VB2 AVDD sky130_fd_pr__pfet_01v8_hvt ad=0.145 pd=1.29 as=0.145 ps=1.29 w=1 l=1
X217 AVDD AVDD AVDD AVDD sky130_fd_pr__pfet_01v8_hvt ad=0.145 pd=1.29 as=0 ps=0 w=1 l=1
X218 AVSS AVSS AVSS AVSS sky130_fd_pr__nfet_01v8 ad=0.145 pd=1.29 as=0 ps=0 w=1 l=1
X219 AVDD AVDD AVDD AVDD sky130_fd_pr__pfet_01v8_hvt ad=0.29 pd=2.58 as=0 ps=0 w=1 l=1
X220 a_4970_2724# VB1 VB1 AVDD sky130_fd_pr__pfet_01v8_hvt ad=0.145 pd=1.29 as=0.145 ps=1.29 w=1 l=1
X221 AVDD VB1 a_4970_6484# AVDD sky130_fd_pr__pfet_01v8_hvt ad=0.29 pd=2.58 as=0.145 ps=1.29 w=1 l=1
X222 AVDD VB1 a_4970_n2468# AVDD sky130_fd_pr__pfet_01v8_hvt ad=0.29 pd=2.58 as=0.145 ps=1.29 w=1 l=1
X223 a_2002_1638# VB1 VB1 AVDD sky130_fd_pr__pfet_01v8_hvt ad=0.145 pd=1.29 as=0.145 ps=1.29 w=1 l=1
X224 VB3 VB1 a_3228_n2468# AVDD sky130_fd_pr__pfet_01v8_hvt ad=0.145 pd=1.29 as=0.145 ps=1.29 w=1 l=1
X225 AVSS VB2 a_9838_205# AVSS sky130_fd_pr__nfet_01v8 ad=0.29 pd=2.58 as=0.145 ps=1.29 w=1 l=1
X226 VB3 VB1 a_1486_5597# AVDD sky130_fd_pr__pfet_01v8_hvt ad=0.145 pd=1.29 as=0.145 ps=1.29 w=1 l=1
X227 a_8132_205# VB2 VB4 AVSS sky130_fd_pr__nfet_01v8 ad=0.145 pd=1.29 as=0.29 ps=2.58 w=1 l=1
X228 AVDD AVDD AVDD AVDD sky130_fd_pr__pfet_01v8_hvt ad=0.145 pd=1.29 as=0 ps=0 w=1 l=1
X229 VB1 VB1 a_1486_1638# AVDD sky130_fd_pr__pfet_01v8_hvt ad=0.145 pd=1.29 as=0.145 ps=1.29 w=1 l=1
X230 AVDD VB1 a_3744_4093# AVDD sky130_fd_pr__pfet_01v8_hvt ad=0.29 pd=2.58 as=0.145 ps=1.29 w=1 l=1
X231 a_1486_5597# VB1 AVDD AVDD sky130_fd_pr__pfet_01v8_hvt ad=0.145 pd=1.29 as=0.29 ps=2.58 w=1 l=1
X232 AVDD AVDD AVDD AVDD sky130_fd_pr__pfet_01v8_hvt ad=0.145 pd=1.29 as=0 ps=0 w=1 l=1
X233 AVSS AVSS AVSS AVSS sky130_fd_pr__nfet_01v8 ad=0.145 pd=1.29 as=0 ps=0 w=1 l=1
X234 AVDD AVDD AVDD AVDD sky130_fd_pr__pfet_01v8_hvt ad=0.145 pd=1.29 as=0 ps=0 w=1 l=1
X235 AVDD AVDD AVDD AVDD sky130_fd_pr__pfet_01v8_hvt ad=0.145 pd=1.29 as=0 ps=0 w=1 l=1
X236 AVDD AVDD AVDD AVDD sky130_fd_pr__pfet_01v8_hvt ad=0.145 pd=1.29 as=0 ps=0 w=1 l=1
X237 a_3744_n1581# VB1 VB2 AVDD sky130_fd_pr__pfet_01v8_hvt ad=0.145 pd=1.29 as=0.145 ps=1.29 w=1 l=1
X238 a_10691_205# IREF AVSS AVSS sky130_fd_pr__nfet_01v8 ad=0.145 pd=1.29 as=0.29 ps=2.58 w=1 l=1
X239 AVDD AVDD AVDD AVDD sky130_fd_pr__pfet_01v8_hvt ad=0.29 pd=2.58 as=0 ps=0 w=1 l=1
X240 AVDD VB1 a_2712_n77# AVDD sky130_fd_pr__pfet_01v8_hvt ad=0.145 pd=1.29 as=0.145 ps=1.29 w=1 l=1
X241 a_1486_1638# VB1 AVDD AVDD sky130_fd_pr__pfet_01v8_hvt ad=0.145 pd=1.29 as=0.29 ps=2.58 w=1 l=1
X242 AVDD VB1 a_4970_n964# AVDD sky130_fd_pr__pfet_01v8_hvt ad=0.29 pd=2.58 as=0.145 ps=1.29 w=1 l=1
X243 a_4454_n1581# VB1 AVDD AVDD sky130_fd_pr__pfet_01v8_hvt ad=0.145 pd=1.29 as=0.29 ps=2.58 w=1 l=1
X244 a_3228_n2468# VB1 AVDD AVDD sky130_fd_pr__pfet_01v8_hvt ad=0.145 pd=1.29 as=0.145 ps=1.29 w=1 l=1
X245 VB3 VB1 a_4454_n77# AVDD sky130_fd_pr__pfet_01v8_hvt ad=0.145 pd=1.29 as=0.145 ps=1.29 w=1 l=1
X246 a_3744_4093# VB1 VB2 AVDD sky130_fd_pr__pfet_01v8_hvt ad=0.145 pd=1.29 as=0.145 ps=1.29 w=1 l=1
X247 AVDD AVDD AVDD AVDD sky130_fd_pr__pfet_01v8_hvt ad=0.145 pd=1.29 as=0 ps=0 w=1 l=1
X248 a_1486_n2468# VB1 AVDD AVDD sky130_fd_pr__pfet_01v8_hvt ad=0.145 pd=1.29 as=0.29 ps=2.58 w=1 l=1
X249 AVSS AVSS AVSS AVSS sky130_fd_pr__nfet_01v8 ad=0.29 pd=2.58 as=0 ps=0 w=1 l=1
X250 AVDD VB1 a_4970_2724# AVDD sky130_fd_pr__pfet_01v8_hvt ad=0.29 pd=2.58 as=0.145 ps=1.29 w=1 l=1
X251 AVDD VB1 a_2002_n3085# AVDD sky130_fd_pr__pfet_01v8_hvt ad=0.29 pd=2.58 as=0.145 ps=1.29 w=1 l=1
X252 a_2712_4980# VB1 VB3 AVDD sky130_fd_pr__pfet_01v8_hvt ad=0.145 pd=1.29 as=0.29 ps=2.58 w=1 l=1
X253 AVSS AVSS AVSS AVSS sky130_fd_pr__nfet_01v8 ad=0.145 pd=1.29 as=0 ps=0 w=1 l=1
X254 VB2 VB1 a_3228_4093# AVDD sky130_fd_pr__pfet_01v8_hvt ad=0.145 pd=1.29 as=0.145 ps=1.29 w=1 l=1
X255 AVSS IREF a_8132_2488# AVSS sky130_fd_pr__nfet_01v8 ad=0.29 pd=2.58 as=0.145 ps=1.29 w=1 l=1
X256 a_2712_2103# VB1 VB1 AVDD sky130_fd_pr__pfet_01v8_hvt ad=0.145 pd=1.29 as=0.29 ps=2.58 w=1 l=1
X257 VB3 VB1 a_1486_n1581# AVDD sky130_fd_pr__pfet_01v8_hvt ad=0.145 pd=1.29 as=0.145 ps=1.29 w=1 l=1
X258 AVDD AVDD AVDD AVDD sky130_fd_pr__pfet_01v8_hvt ad=0.29 pd=2.58 as=0 ps=0 w=1 l=1
X259 AVDD AVDD AVDD AVDD sky130_fd_pr__pfet_01v8_hvt ad=0.29 pd=2.58 as=0 ps=0 w=1 l=1
X260 AVDD AVDD AVDD AVDD sky130_fd_pr__pfet_01v8_hvt ad=0.145 pd=1.29 as=0 ps=0 w=1 l=1
X261 AVSS IREF a_8132_1583# AVSS sky130_fd_pr__nfet_01v8 ad=0.29 pd=2.58 as=0.145 ps=1.29 w=1 l=1
X262 AVDD VB1 a_3744_3472# AVDD sky130_fd_pr__pfet_01v8_hvt ad=0.29 pd=2.58 as=0.145 ps=1.29 w=1 l=1
X263 AVDD AVDD AVDD AVDD sky130_fd_pr__pfet_01v8_hvt ad=0.145 pd=1.29 as=0 ps=0 w=1 l=1
X264 a_4970_4980# VB1 VB2 AVDD sky130_fd_pr__pfet_01v8_hvt ad=0.145 pd=1.29 as=0.145 ps=1.29 w=1 l=1
X265 VB2 VB1 a_3228_n77# AVDD sky130_fd_pr__pfet_01v8_hvt ad=0.145 pd=1.29 as=0.145 ps=1.29 w=1 l=1
X266 a_2002_1009# VB1 VB1 AVDD sky130_fd_pr__pfet_01v8_hvt ad=0.145 pd=1.29 as=0.145 ps=1.29 w=1 l=1
X267 AVDD VB1 a_4970_n77# AVDD sky130_fd_pr__pfet_01v8_hvt ad=0.29 pd=2.58 as=0.145 ps=1.29 w=1 l=1
X268 AVDD VB1 a_2002_6484# AVDD sky130_fd_pr__pfet_01v8_hvt ad=0.29 pd=2.58 as=0.145 ps=1.29 w=1 l=1
X269 AVDD VB1 a_2712_6484# AVDD sky130_fd_pr__pfet_01v8_hvt ad=0.145 pd=1.29 as=0.145 ps=1.29 w=1 l=1
X270 a_4970_2103# VB1 VB1 AVDD sky130_fd_pr__pfet_01v8_hvt ad=0.145 pd=1.29 as=0.145 ps=1.29 w=1 l=1
X271 AVDD AVDD AVDD AVDD sky130_fd_pr__pfet_01v8_hvt ad=0.145 pd=1.29 as=0 ps=0 w=1 l=1
X272 VB4 VB4 a_10777_5531# AVDD sky130_fd_pr__pfet_01v8_hvt ad=0.29 pd=2.58 as=0.145 ps=1.29 w=1 l=1
X273 AVDD AVDD AVDD AVDD sky130_fd_pr__pfet_01v8_hvt ad=0.145 pd=1.29 as=0 ps=0 w=1 l=1
X274 a_3744_3472# VB1 VB3 AVDD sky130_fd_pr__pfet_01v8_hvt ad=0.145 pd=1.29 as=0.145 ps=1.29 w=1 l=1
X275 AVDD AVDD AVDD AVDD sky130_fd_pr__pfet_01v8_hvt ad=0.29 pd=2.58 as=0 ps=0 w=1 l=1
X276 a_4970_n3085# VB1 VB3 AVDD sky130_fd_pr__pfet_01v8_hvt ad=0.145 pd=1.29 as=0.145 ps=1.29 w=1 l=1
X277 a_2002_n77# VB1 VB3 AVDD sky130_fd_pr__pfet_01v8_hvt ad=0.145 pd=1.29 as=0.145 ps=1.29 w=1 l=1
X278 VB1 VB1 a_1486_1009# AVDD sky130_fd_pr__pfet_01v8_hvt ad=0.145 pd=1.29 as=0.145 ps=1.29 w=1 l=1
X279 AVDD VB1 a_2712_542# AVDD sky130_fd_pr__pfet_01v8_hvt ad=0.145 pd=1.29 as=0.145 ps=1.29 w=1 l=1
X280 AVDD AVDD AVDD AVDD sky130_fd_pr__pfet_01v8_hvt ad=0.29 pd=2.58 as=0 ps=0 w=1 l=1
X281 a_10777_5531# VB4 a_10519_5531# AVDD sky130_fd_pr__pfet_01v8_hvt ad=0.145 pd=1.29 as=0.145 ps=1.29 w=1 l=1
X282 VB1 VB1 a_4454_542# AVDD sky130_fd_pr__pfet_01v8_hvt ad=0.145 pd=1.29 as=0.145 ps=1.29 w=1 l=1
X283 AVDD AVDD AVDD AVDD sky130_fd_pr__pfet_01v8_hvt ad=0.29 pd=2.58 as=0 ps=0 w=1 l=1
X284 AVDD AVDD AVDD AVDD sky130_fd_pr__pfet_01v8_hvt ad=0.29 pd=2.58 as=0 ps=0 w=1 l=1
X285 VB1 IREF a_8985_205# AVSS sky130_fd_pr__nfet_01v8 ad=0.29 pd=2.58 as=0.145 ps=1.29 w=1 l=1
X286 VB3 VB1 a_3228_3472# AVDD sky130_fd_pr__pfet_01v8_hvt ad=0.145 pd=1.29 as=0.145 ps=1.29 w=1 l=1
X287 VB3 VB1 a_4454_5597# AVDD sky130_fd_pr__pfet_01v8_hvt ad=0.145 pd=1.29 as=0.145 ps=1.29 w=1 l=1
X288 AVDD AVDD AVDD AVDD sky130_fd_pr__pfet_01v8_hvt ad=0.145 pd=1.29 as=0 ps=0 w=1 l=1
X289 AVDD AVDD AVDD AVDD sky130_fd_pr__pfet_01v8_hvt ad=0.145 pd=1.29 as=0 ps=0 w=1 l=1
X290 a_1486_1009# VB1 AVDD AVDD sky130_fd_pr__pfet_01v8_hvt ad=0.145 pd=1.29 as=0.29 ps=2.58 w=1 l=1
X291 AVDD AVDD AVDD AVDD sky130_fd_pr__pfet_01v8_hvt ad=0.145 pd=1.29 as=0 ps=0 w=1 l=1
X292 VB1 VB1 a_4454_1638# AVDD sky130_fd_pr__pfet_01v8_hvt ad=0.145 pd=1.29 as=0.145 ps=1.29 w=1 l=1
X293 AVDD AVDD AVDD AVDD sky130_fd_pr__pfet_01v8_hvt ad=0.145 pd=1.29 as=0 ps=0 w=1 l=1
X294 a_4454_5597# VB1 AVDD AVDD sky130_fd_pr__pfet_01v8_hvt ad=0.145 pd=1.29 as=0.29 ps=2.58 w=1 l=1
X295 AVDD VB1 a_3744_n3085# AVDD sky130_fd_pr__pfet_01v8_hvt ad=0.29 pd=2.58 as=0.145 ps=1.29 w=1 l=1
X296 AVDD VB1 a_4970_4980# AVDD sky130_fd_pr__pfet_01v8_hvt ad=0.29 pd=2.58 as=0.145 ps=1.29 w=1 l=1
X297 IREF IREF a_10691_1111# AVSS sky130_fd_pr__nfet_01v8 ad=0.29 pd=2.58 as=0.145 ps=1.29 w=1 l=1
X298 AVDD AVDD AVDD AVDD sky130_fd_pr__pfet_01v8_hvt ad=0.29 pd=2.58 as=0 ps=0 w=1 l=1
X299 AVDD VB1 a_2712_n964# AVDD sky130_fd_pr__pfet_01v8_hvt ad=0.145 pd=1.29 as=0.145 ps=1.29 w=1 l=1
X300 AVDD VB1 a_2002_n964# AVDD sky130_fd_pr__pfet_01v8_hvt ad=0.29 pd=2.58 as=0.145 ps=1.29 w=1 l=1
X301 AVDD AVDD AVDD AVDD sky130_fd_pr__pfet_01v8_hvt ad=0.29 pd=2.58 as=0 ps=0 w=1 l=1
X302 VB3 VB1 a_4454_n3085# AVDD sky130_fd_pr__pfet_01v8_hvt ad=0.145 pd=1.29 as=0.145 ps=1.29 w=1 l=1
X303 AVDD VB1 a_2712_2724# AVDD sky130_fd_pr__pfet_01v8_hvt ad=0.145 pd=1.29 as=0.145 ps=1.29 w=1 l=1
X304 AVDD VB1 a_2002_2724# AVDD sky130_fd_pr__pfet_01v8_hvt ad=0.29 pd=2.58 as=0.145 ps=1.29 w=1 l=1
X305 a_3228_6484# VB1 AVDD AVDD sky130_fd_pr__pfet_01v8_hvt ad=0.145 pd=1.29 as=0.145 ps=1.29 w=1 l=1
X306 AVDD VB1 a_2712_n3085# AVDD sky130_fd_pr__pfet_01v8_hvt ad=0.145 pd=1.29 as=0.145 ps=1.29 w=1 l=1
X307 AVDD AVDD AVDD AVDD sky130_fd_pr__pfet_01v8_hvt ad=0.145 pd=1.29 as=0 ps=0 w=1 l=1
X308 a_4454_1638# VB1 AVDD AVDD sky130_fd_pr__pfet_01v8_hvt ad=0.145 pd=1.29 as=0.29 ps=2.58 w=1 l=1
X309 AVDD VB1 a_4970_2103# AVDD sky130_fd_pr__pfet_01v8_hvt ad=0.29 pd=2.58 as=0.145 ps=1.29 w=1 l=1
X310 AVDD AVDD AVDD AVDD sky130_fd_pr__pfet_01v8_hvt ad=0.29 pd=2.58 as=0 ps=0 w=1 l=1
X311 AVSS AVSS AVSS AVSS sky130_fd_pr__nfet_01v8 ad=0.145 pd=1.29 as=0 ps=0 w=1 l=1
X312 AVSS AVSS AVSS AVSS sky130_fd_pr__nfet_01v8 ad=0.29 pd=2.58 as=0 ps=0 w=1 l=1
X313 a_10519_5995# VB4 AVDD AVDD sky130_fd_pr__pfet_01v8_hvt ad=0.145 pd=1.29 as=0.29 ps=2.58 w=1 l=1